aqu_catunit.ele: written by SWAT+ editor v3.0.0 on 2024-06-21 16:08 for SWAT+ rev.61.0
      id  name                   obj_typ  obj_typ_no      bsn_frac      sub_frac      reg_frac  
       1  aqu0010                    aqu           1       0.00453       0.00000       0.00000  
       2  aqu0020                    aqu           2       0.00989       0.00000       0.00000  
       3  aqu0030                    aqu           3       0.01400       0.00000       0.00000  
       4  aqu0040                    aqu           4       0.00047       0.00000       0.00000  
       5  aqu0050                    aqu           5       0.00020       0.00000       0.00000  
       6  aqu0060                    aqu           6       0.01798       0.00000       0.00000  
       7  aqu0070                    aqu           7       0.00003       0.00000       0.00000  
       8  aqu0080                    aqu           8       0.00058       0.00000       0.00000  
       9  aqu0090                    aqu           9       0.02026       0.00000       0.00000  
      10  aqu0100                    aqu          10       0.00139       0.00000       0.00000  
      11  aqu0110                    aqu          11       0.01859       0.00000       0.00000  
      12  aqu0120                    aqu          12       0.01384       0.00000       0.00000  
      13  aqu0130                    aqu          13       0.01314       0.00000       0.00000  
      14  aqu0140                    aqu          14       0.00013       0.00000       0.00000  
      15  aqu0150                    aqu          15       0.01147       0.00000       0.00000  
      16  aqu0160                    aqu          16       0.00689       0.00000       0.00000  
      17  aqu0170                    aqu          17       0.00027       0.00000       0.00000  
      18  aqu0180                    aqu          18       0.00789       0.00000       0.00000  
      19  aqu0190                    aqu          19       0.04711       0.00000       0.00000  
      20  aqu0200                    aqu          20       0.00130       0.00000       0.00000  
      21  aqu0210                    aqu          21       0.00141       0.00000       0.00000  
      22  aqu0220                    aqu          22       0.02508       0.00000       0.00000  
      23  aqu0230                    aqu          23       0.00102       0.00000       0.00000  
      24  aqu0240                    aqu          24       0.00017       0.00000       0.00000  
      25  aqu0250                    aqu          25       0.01657       0.00000       0.00000  
      26  aqu0260                    aqu          26       0.00036       0.00000       0.00000  
      27  aqu0270                    aqu          27       0.00013       0.00000       0.00000  
      28  aqu0280                    aqu          28       0.00467       0.00000       0.00000  
      29  aqu0290                    aqu          29       0.00153       0.00000       0.00000  
      30  aqu0300                    aqu          30       0.00001       0.00000       0.00000  
      31  aqu0310                    aqu          31       0.02183       0.00000       0.00000  
      32  aqu0320                    aqu          32       0.00626       0.00000       0.00000  
      33  aqu0330                    aqu          33       0.05715       0.00000       0.00000  
      34  aqu0340                    aqu          34       0.00827       0.00000       0.00000  
      35  aqu0350                    aqu          35       0.00307       0.00000       0.00000  
      36  aqu0360                    aqu          36       0.01052       0.00000       0.00000  
      37  aqu0370                    aqu          37       0.00169       0.00000       0.00000  
      38  aqu0380                    aqu          38       0.00899       0.00000       0.00000  
      39  aqu0390                    aqu          39       0.00299       0.00000       0.00000  
      40  aqu0400                    aqu          40       0.01539       0.00000       0.00000  
      41  aqu0410                    aqu          41       0.00002       0.00000       0.00000  
      42  aqu0420                    aqu          42       0.00076       0.00000       0.00000  
      43  aqu0430                    aqu          43       0.01633       0.00000       0.00000  
      44  aqu0440                    aqu          44       0.01155       0.00000       0.00000  
      45  aqu0450                    aqu          45       0.00023       0.00000       0.00000  
      46  aqu0460                    aqu          46       0.00992       0.00000       0.00000  
      47  aqu0470                    aqu          47       0.00890       0.00000       0.00000  
      48  aqu0480                    aqu          48       0.00550       0.00000       0.00000  
      49  aqu0490                    aqu          49       0.00902       0.00000       0.00000  
      50  aqu0500                    aqu          50       0.00282       0.00000       0.00000  
      51  aqu0510                    aqu          51       0.00329       0.00000       0.00000  
      52  aqu0520                    aqu          52       0.02784       0.00000       0.00000  
      53  aqu0530                    aqu          53       0.02730       0.00000       0.00000  
      54  aqu0540                    aqu          54       0.00636       0.00000       0.00000  
      55  aqu0550                    aqu          55       0.01782       0.00000       0.00000  
      56  aqu0560                    aqu          56       0.00001       0.00000       0.00000  
      57  aqu0570                    aqu          57       0.00186       0.00000       0.00000  
      58  aqu0580                    aqu          58       0.00468       0.00000       0.00000  
      59  aqu0590                    aqu          59       0.00147       0.00000       0.00000  
      60  aqu0600                    aqu          60       0.00132       0.00000       0.00000  
      61  aqu0610                    aqu          61       0.01607       0.00000       0.00000  
      62  aqu0620                    aqu          62       0.02504       0.00000       0.00000  
      63  aqu0630                    aqu          63       0.01110       0.00000       0.00000  
      64  aqu0640                    aqu          64       0.00229       0.00000       0.00000  
      65  aqu0650                    aqu          65       0.00001       0.00000       0.00000  
      66  aqu0660                    aqu          66       0.01251       0.00000       0.00000  
      67  aqu0670                    aqu          67       0.01403       0.00000       0.00000  
      68  aqu0680                    aqu          68       0.03705       0.00000       0.00000  
      69  aqu0690                    aqu          69       0.01887       0.00000       0.00000  
      70  aqu0700                    aqu          70       0.00656       0.00000       0.00000  
      71  aqu0710                    aqu          71       0.00765       0.00000       0.00000  
      72  aqu0720                    aqu          72       0.00067       0.00000       0.00000  
      73  aqu0730                    aqu          73       0.01934       0.00000       0.00000  
      74  aqu0740                    aqu          74       0.00001       0.00000       0.00000  
      75  aqu0750                    aqu          75       0.00005       0.00000       0.00000  
      76  aqu0760                    aqu          76       0.00582       0.00000       0.00000  
      77  aqu0770                    aqu          77       0.00057       0.00000       0.00000  
      78  aqu0780                    aqu          78       0.00879       0.00000       0.00000  
      79  aqu0790                    aqu          79       0.00039       0.00000       0.00000  
      80  aqu0800                    aqu          80       0.00039       0.00000       0.00000  
      81  aqu0810                    aqu          81       0.00303       0.00000       0.00000  
      82  aqu0820                    aqu          82       0.00053       0.00000       0.00000  
      83  aqu0830                    aqu          83       0.00151       0.00000       0.00000  
      84  aqu0840                    aqu          84       0.01595       0.00000       0.00000  
      85  aqu0850                    aqu          85       0.00014       0.00000       0.00000  
      86  aqu0860                    aqu          86       0.02111       0.00000       0.00000  
      87  aqu0870                    aqu          87       0.00202       0.00000       0.00000  
      88  aqu0880                    aqu          88       0.00692       0.00000       0.00000  
      89  aqu0890                    aqu          89       0.00396       0.00000       0.00000  
      90  aqu0900                    aqu          90       0.01306       0.00000       0.00000  
      91  aqu0910                    aqu          91       0.00091       0.00000       0.00000  
      92  aqu0920                    aqu          92       0.00055       0.00000       0.00000  
      93  aqu0930                    aqu          93       0.00435       0.00000       0.00000  
      94  aqu0940                    aqu          94       0.01448       0.00000       0.00000  
      95  aqu0950                    aqu          95       0.00494       0.00000       0.00000  
      96  aqu0960                    aqu          96       0.00178       0.00000       0.00000  
      97  aqu0970                    aqu          97       0.00558       0.00000       0.00000  
      98  aqu0980                    aqu          98       0.01238       0.00000       0.00000  
      99  aqu0990                    aqu          99       0.01098       0.00000       0.00000  
     100  aqu1000                    aqu         100       0.00019       0.00000       0.00000  
     101  aqu1010                    aqu         101       0.01196       0.00000       0.00000  
     102  aqu1020                    aqu         102       0.00052       0.00000       0.00000  
     103  aqu1030                    aqu         103       0.00004       0.00000       0.00000  
     104  aqu1040                    aqu         104       0.00127       0.00000       0.00000  
     105  aqu1050                    aqu         105       0.01930       0.00000       0.00000  
     106  aqu1060                    aqu         106       0.02106       0.00000       0.00000  
     107  aqu1070                    aqu         107       0.00778       0.00000       0.00000  
     108  aqu1080                    aqu         108       0.00098       0.00000       0.00000  
     109  aqu1090                    aqu         109       0.02271       0.00000       0.00000  
     110  aqu1100                    aqu         110       0.00416       0.00000       0.00000  
     111  aqu1110                    aqu         111       0.00025       0.00000       0.00000  
     112  aqu1120                    aqu         112       0.00792       0.00000       0.00000  
     113  aqu1130                    aqu         113       0.00248       0.00000       0.00000  
     114  aqu1140                    aqu         114       0.01390       0.00000       0.00000  
     115  aqu1150                    aqu         115       0.00083       0.00000       0.00000  
     116  aqu1160                    aqu         116       0.01723       0.00000       0.00000  
     117  aqu1170                    aqu         117       0.00876       0.00000       0.00000  
     118  aqu1180                    aqu         118       0.00682       0.00000       0.00000  
     119  aqu1190                    aqu         119       0.00636       0.00000       0.00000  
     120  aqu_deep0019               aqu         120       1.00000       0.00000       0.00000  
