aquifer.con: written by SWAT+ editor v3.0.0 on 2024-06-21 16:07 for SWAT+ rev.61.0
      id  name                gis_id          area           lat           lon          elev       aqu               wst       cst      ovfl      rule   out_tot       obj_typ    obj_id       hyd_typ          frac  
       1  aqu0010                 10     396.30705      41.66631       2.77477       4.32500         1      s41647n2757e         0         0         0         2           sdc        26           tot       1.00000           aqu       120           rhg       1.00000  
       2  aqu0020                 20     865.70838      41.68437       2.76319      15.47900         2      s41647n2757e         0         0         0         2           sdc        27           tot       1.00000           aqu       120           rhg       1.00000  
       3  aqu0030                 30    1224.87531      41.70828       2.76216      62.28300         3      s41647n2757e         0         0         0         2           sdc        77           tot       1.00000           aqu       120           rhg       1.00000  
       4  aqu0040                 40      41.50956      41.68853       2.74550      13.39900         4      s41647n2757e         0         0         0         2           sdc        78           tot       1.00000           aqu       120           rhg       1.00000  
       5  aqu0050                 50      17.41529      41.68984       2.73689      18.27300         5      s41647n2757e         0         0         0         2           sdc        53           tot       1.00000           aqu       120           rhg       1.00000  
       6  aqu0060                 60    1573.18108      41.68060       2.69439      80.77500         6      s41739n2694e         0         0         0         2           sdc        76           tot       1.00000           aqu       120           rhg       1.00000  
       7  aqu0070                 70       2.24713      41.69227       2.73974      14.13200         7      s41647n2757e         0         0         0         2           sdc        28           tot       1.00000           aqu       120           rhg       1.00000  
       8  aqu0080                 80      50.37325      41.69727       2.73296      16.21500         8      s41647n2757e         0         0         0         2           sdc        29           tot       1.00000           aqu       120           rhg       1.00000  
       9  aqu0090                 90    1773.23843      41.72882       2.74191      74.13300         9      s41739n2694e         0         0         0         2           sdc        79           tot       1.00000           aqu       120           rhg       1.00000  
      10  aqu0100                100     121.40766      41.70649       2.71490      26.19100        10      s41739n2694e         0         0         0         2           sdc        30           tot       1.00000           aqu       120           rhg       1.00000  
      11  aqu0110                110    1626.98746      41.69031       2.66357     111.69600        11      s41739n2694e         0         0         0         2           sdc        56           tot       1.00000           aqu       120           rhg       1.00000  
      12  aqu0120                120    1211.39250      41.71388       2.67228      71.45300        12      s41739n2694e         0         0         0         2           sdc        80           tot       1.00000           aqu       120           rhg       1.00000  
      13  aqu0130                130    1150.15810      41.74134       2.71110      59.39300        13      s41739n2694e         0         0         0         2           sdc        31           tot       1.00000           aqu       120           rhg       1.00000  
      14  aqu0140                140      11.79745      41.74065       2.69536      52.23200        14      s41739n2694e         0         0         0         2           sdc        32           tot       1.00000           aqu       120           rhg       1.00000  
      15  aqu0150                150    1003.59503      41.76422       2.69767      88.81900        15      s41739n2694e         0         0         0         2           sdc        68           tot       1.00000           aqu       120           rhg       1.00000  
      16  aqu0160                160     603.35549      41.73258       2.66437      67.63400        16      s41739n2694e         0         0         0         2           sdc        69           tot       1.00000           aqu       120           rhg       1.00000  
      17  aqu0170                170      23.84459      41.74427       2.67410      45.86100        17      s41739n2694e         0         0         0         2           sdc        33           tot       1.00000           aqu       120           rhg       1.00000  
      18  aqu0180                180     690.55677      41.76296       2.67224      53.48100        18      s41739n2694e         0         0         0         2           sdc        34           tot       1.00000           aqu       120           rhg       1.00000  
      19  aqu0190                190    4123.30368      41.80013       2.61502     153.86700        19      s41865n2664e         0         0         0         2           sdc         1           tot       1.00000           aqu       120           rhg       1.00000  
      20  aqu0200                200     113.97963      41.77970       2.67966      86.38400        20      s41739n2694e         0         0         0         2           sdc         3           tot       1.00000           aqu       120           rhg       1.00000  
      21  aqu0210                210     123.59237      41.79337       2.68217      86.55500        21      s41739n2694e         0         0         0         2           sdc         4           tot       1.00000           aqu       120           rhg       1.00000  
      22  aqu0220                220    2195.32511      41.82149       2.64072     199.54800        22      s41865n2664e         0         0         0         2           sdc        19           tot       1.00000           aqu       120           rhg       1.00000  
      23  aqu0230                230      89.19874      41.80133       2.69984     122.68000        23      s41739n2694e         0         0         0         2           sdc         5           tot       1.00000           aqu       120           rhg       1.00000  
      24  aqu0240                240      14.98089      41.80351       2.70953      75.92800        24      s41739n2694e         0         0         0         2           sdc         6           tot       1.00000           aqu       120           rhg       1.00000  
      25  aqu0250                250    1450.40018      41.83176       2.66345     138.77200        25      s41865n2664e         0         0         0         2           sdc        82           tot       1.00000           aqu       120           rhg       1.00000  
      26  aqu0260                260      31.45988      41.80813       2.71534      93.90700        26      s41739n2694e         0         0         0         2           sdc        81           tot       1.00000           aqu       120           rhg       1.00000  
      27  aqu0270                270      11.79745      41.81433       2.71360      83.76300        27      s41865n2664e         0         0         0         2           sdc         7           tot       1.00000           aqu       120           rhg       1.00000  
      28  aqu0280                280     408.79113      41.83945       2.67790     121.12300        28      s41865n2664e         0         0         0         2           sdc        99           tot       1.00000           aqu       120           rhg       1.00000  
      29  aqu0290                290     133.95416      41.85665       2.66140     126.61900        29      s41865n2664e         0         0         0         2           sdc         8           tot       1.00000           aqu       120           rhg       1.00000  
      30  aqu0300                300       1.24841      41.85901       2.65777     131.03900        30      s41865n2664e         0         0         0         2           sdc         9           tot       1.00000           aqu       120           rhg       1.00000  
      31  aqu0310                310    1910.31361      41.89376       2.61919     294.85199        31      s41865n2664e         0         0         0         2           sdc        25           tot       1.00000           aqu       120           rhg       1.00000  
      32  aqu0320                320     547.67650      41.86373       2.64121     222.65300        32      s41865n2664e         0         0         0         2           sdc        10           tot       1.00000           aqu       120           rhg       1.00000  
      33  aqu0330                330    5001.30889      41.86806       2.56991     423.05399        33      s41865n2664e         0         0         0         2           sdc        24           tot       1.00000           aqu       120           rhg       1.00000  
      34  aqu0340                340     723.51474      41.83732       2.69664      98.64600        34      s41865n2664e         0         0         0         2           sdc        20           tot       1.00000           aqu       120           rhg       1.00000  
      35  aqu0350                350     269.09430      41.83539       2.71213      89.54200        35      s41865n2664e         0         0         0         2           sdc        84           tot       1.00000           aqu       120           rhg       1.00000  
      36  aqu0360                360     920.45107      41.86767       2.67971     140.42500        36      s41865n2664e         0         0         0         2           sdc        94           tot       1.00000           aqu       120           rhg       1.00000  
      37  aqu0370                370     148.24843      41.78813       2.69106     100.53800        37      s41739n2694e         0         0         0         2           sdc        11           tot       1.00000           aqu       120           rhg       1.00000  
      38  aqu0380                380     786.93385      41.79076       2.71930      68.29000        38      s41739n2694e         0         0         0         2           sdc        97           tot       1.00000           aqu       120           rhg       1.00000  
      39  aqu0390                390     261.47901      41.78810       2.74407      70.83000        39      s41739n2694e         0         0         0         2           sdc        18           tot       1.00000           aqu       120           rhg       1.00000  
      40  aqu0400                400    1346.78233      41.76136       2.75243     116.81800        40      s41739n2694e         0         0         0         2           sdc        73           tot       1.00000           aqu       120           rhg       1.00000  
      41  aqu0410                410       1.49809      41.79896       2.73292      65.66100        41      s41739n2694e         0         0         0         2           sdc        12           tot       1.00000           aqu       120           rhg       1.00000  
      42  aqu0420                420      66.85224      41.79146       2.75088      81.22700        42      s41739n2694e         0         0         0         2           sdc        17           tot       1.00000           aqu       120           rhg       1.00000  
      43  aqu0430                430    1428.80272      41.75800       2.79616     157.04300        43      s41739n2694e         0         0         0         2           sdc        70           tot       1.00000           aqu       120           rhg       1.00000  
      44  aqu0440                440    1011.14789      41.76822       2.81358     127.98000        44      s41739n2694e         0         0         0         2           sdc        71           tot       1.00000           aqu       120           rhg       1.00000  
      45  aqu0450                450      20.09937      41.79830       2.74092      66.53400        45      s41739n2694e         0         0         0         2           sdc        13           tot       1.00000           aqu       120           rhg       1.00000  
      46  aqu0460                460     867.95552      41.79485       2.77969      95.04600        46      s41885n2741e         0         0         0         2           sdc        92           tot       1.00000           aqu       120           rhg       1.00000  
      47  aqu0470                470     778.81920      41.78513       2.81275     132.44000        47      s41898n2819e         0         0         0         2           sdc        98           tot       1.00000           aqu       120           rhg       1.00000  
      48  aqu0480                480     481.13636      41.79735       2.82910     127.20500        48      s41898n2819e         0         0         0         2           sdc        93           tot       1.00000           aqu       120           rhg       1.00000  
      49  aqu0490                490     789.61793      41.78127       2.85523     216.00400        49      s41875n2927e         0         0         0         2           sdc        91           tot       1.00000           aqu       120           rhg       1.00000  
      50  aqu0500                500     246.81022      41.80773       2.73851      74.98600        50      s41885n2741e         0         0         0         2           sdc        15           tot       1.00000           aqu       120           rhg       1.00000  
      51  aqu0510                510     287.94526      41.80578       2.76320      78.54300        51      s41885n2741e         0         0         0         2           sdc        72           tot       1.00000           aqu       120           rhg       1.00000  
      52  aqu0520                520    2436.76717      41.82720       2.79281      83.64100        52      s41898n2819e         0         0         0         2           sdc        22           tot       1.00000           aqu       120           rhg       1.00000  
      53  aqu0530                530    2389.45252      41.84519       2.73559     105.04700        53      s41885n2741e         0         0         0         2           sdc        83           tot       1.00000           aqu       120           rhg       1.00000  
      54  aqu0540                540     556.60262      41.75610       2.65062      67.29900        54      s41739n2694e         0         0         0         2           sdc        35           tot       1.00000           aqu       120           rhg       1.00000  
      55  aqu0550                550    1559.32376      41.74240       2.62957      98.57400        55      s41739n2694e         0         0         0         2           sdc       100           tot       1.00000           aqu       120           rhg       1.00000  
      56  aqu0560                560       0.93631      41.73199       2.62583      62.89200        56      s41739n2694e         0         0         0         2           sdc        48           tot       1.00000           aqu       120           rhg       1.00000  
      57  aqu0570                570     162.85480      41.74129       2.62368      73.67100        57      s41739n2694e         0         0         0         2           sdc        49           tot       1.00000           aqu       120           rhg       1.00000  
      58  aqu0580                580     409.66502      41.75437       2.60657      85.69800        58      s41739n2694e         0         0         0         2           sdc       101           tot       1.00000           aqu       120           rhg       1.00000  
      59  aqu0590                590     128.77326      41.76094       2.58950     110.00600        59      s41739n2694e         0         0         0         2           sdc        50           tot       1.00000           aqu       120           rhg       1.00000  
      60  aqu0600                600     115.60256      41.76876       2.58635     184.07800        60      s41739n2694e         0         0         0         2           sdc        51           tot       1.00000           aqu       120           rhg       1.00000  
      61  aqu0610                610    1406.51864      41.78545       2.56541     200.75400        61      s41865n2664e         0         0         0         2           sdc       102           tot       1.00000           aqu       120           rhg       1.00000  
      62  aqu0620                620    2191.33020      41.84346       2.52005     493.38199        62      s41840n2419e         0         0         0         2           sdc        21           tot       1.00000           aqu       120           rhg       1.00000  
      63  aqu0630                630     971.63579      41.79766       2.52105     527.87903        63      s41840n2419e         0         0         0         2           sdc        14           tot       1.00000           aqu       120           rhg       1.00000  
      64  aqu0640                640     200.55671      41.81171       2.51840     319.65100        64      s41840n2419e         0         0         0         2           sdc       103           tot       1.00000           aqu       120           rhg       1.00000  
      65  aqu0650                650       0.31210      41.81466       2.52153     265.26401        65      s41840n2419e         0         0         0         2           sdc        66           tot       1.00000           aqu       120           rhg       1.00000  
      66  aqu0660                660    1094.79122      41.84350       2.49158     473.96301        66      s41840n2419e         0         0         0         2           sdc        67           tot       1.00000           aqu       120           rhg       1.00000  
      67  aqu0670                670    1228.05875      41.80683       2.48118     557.29401        67      s41840n2419e         0         0         0         2           sdc        65           tot       1.00000           aqu       120           rhg       1.00000  
      68  aqu0680                680    3242.61441      41.82684       2.44650     581.86200        68      s41840n2419e         0         0         0         2           sdc        23           tot       1.00000           aqu       120           rhg       1.00000  
      69  aqu0690                690    1651.08173      41.70364       2.61222     181.83701        69      s41739n2694e         0         0         0         2           sdc        36           tot       1.00000           aqu       120           rhg       1.00000  
      70  aqu0700                700     574.08032      41.74580       2.58937     112.76800        70      s41739n2694e         0         0         0         2           sdc       104           tot       1.00000           aqu       120           rhg       1.00000  
      71  aqu0710                710     669.33384      41.72870       2.58584      74.56200        71      s41680n2489e         0         0         0         2           sdc       105           tot       1.00000           aqu       120           rhg       1.00000  
      72  aqu0720                720      58.86243      41.72699       2.58416      75.39700        72      s41680n2489e         0         0         0         2           sdc       106           tot       1.00000           aqu       120           rhg       1.00000  
      73  aqu0730                730    1692.65371      41.68273       2.58502     194.61400        73      s41680n2489e         0         0         0         2           sdc        57           tot       1.00000           aqu       120           rhg       1.00000  
      74  aqu0740                740       0.18726      41.72475       2.57520      75.65900        74      s41680n2489e         0         0         0         2           sdc        37           tot       1.00000           aqu       120           rhg       1.00000  
      75  aqu0750                750       4.74395      41.72553       2.57385      78.87100        75      s41680n2489e         0         0         0         2           sdc        59           tot       1.00000           aqu       120           rhg       1.00000  
      76  aqu0760                760     508.91344      41.74146       2.54233     164.34900        76      s41680n2489e         0         0         0         2           sdc        61           tot       1.00000           aqu       120           rhg       1.00000  
      77  aqu0770                770      49.99873      41.73058       2.56852      86.34700        77      s41680n2489e         0         0         0         2           sdc        60           tot       1.00000           aqu       120           rhg       1.00000  
      78  aqu0780                780     768.83194      41.76217       2.55128     217.84399        78      s41680n2489e         0         0         0         2           sdc        63           tot       1.00000           aqu       120           rhg       1.00000  
      79  aqu0790                790      34.14395      41.73542       2.56474     103.81300        79      s41680n2489e         0         0         0         2           sdc        62           tot       1.00000           aqu       120           rhg       1.00000  
      80  aqu0800                800      33.89427      41.73685       2.56234     107.65700        80      s41680n2489e         0         0         0         2           sdc       110           tot       1.00000           aqu       120           rhg       1.00000  
      81  aqu0810                810     265.34908      41.74575       2.54975     157.98599        81      s41680n2489e         0         0         0         2           sdc       109           tot       1.00000           aqu       120           rhg       1.00000  
      82  aqu0820                820      46.12867      41.75423       2.54916     192.30701        82      s41680n2489e         0         0         0         2           sdc       108           tot       1.00000           aqu       120           rhg       1.00000  
      83  aqu0830                830     132.26881      41.76299       2.53405     278.45999        83      s41680n2489e         0         0         0         2           sdc       107           tot       1.00000           aqu       120           rhg       1.00000  
      84  aqu0840                840    1396.21928      41.77892       2.49709     674.17603        84      s41840n2419e         0         0         0         2           sdc        64           tot       1.00000           aqu       120           rhg       1.00000  
      85  aqu0850                850      12.54650      41.72402       2.57102      76.63000        85      s41680n2489e         0         0         0         2           sdc        38           tot       1.00000           aqu       120           rhg       1.00000  
      86  aqu0860                860    1847.70596      41.72078       2.54034     118.69500        86      s41680n2489e         0         0         0         2           sdc       111           tot       1.00000           aqu       120           rhg       1.00000  
      87  aqu0870                870     176.71212      41.72299       2.53065     122.80400        87      s41680n2489e         0         0         0         2           sdc       112           tot       1.00000           aqu       120           rhg       1.00000  
      88  aqu0880                880     605.66504      41.72535       2.49481     203.10001        88      s41680n2489e         0         0         0         2           sdc        58           tot       1.00000           aqu       120           rhg       1.00000  
      89  aqu0890                890     346.80769      41.72920       2.50887     153.03000        89      s41680n2489e         0         0         0         2           sdc        85           tot       1.00000           aqu       120           rhg       1.00000  
      90  aqu0900                900    1142.85492      41.74817       2.48961     347.10199        90      s41680n2489e         0         0         0         2           sdc       113           tot       1.00000           aqu       120           rhg       1.00000  
      91  aqu0910                910      79.39874      41.76963       2.46658    1104.72400        91      s41840n2419e         0         0         0         2           sdc        74           tot       1.00000           aqu       120           rhg       1.00000  
      92  aqu0920                920      48.37580      41.77337       2.46665    1112.35901        92      s41840n2419e         0         0         0         2           sdc        75           tot       1.00000           aqu       120           rhg       1.00000  
      93  aqu0930                930     380.32743      41.77796       2.44893    1347.68396        93      s41840n2419e         0         0         0         2           sdc        95           tot       1.00000           aqu       120           rhg       1.00000  
      94  aqu0940                940    1267.38359      41.68723       2.53652     234.80400        94      s41680n2489e         0         0         0         2           sdc        39           tot       1.00000           aqu       120           rhg       1.00000  
      95  aqu0950                950     432.51088      41.70601       2.50170     194.66901        95      s41680n2489e         0         0         0         2           sdc       114           tot       1.00000           aqu       120           rhg       1.00000  
      96  aqu0960                960     155.80129      41.68889       2.51938     179.31400        96      s41680n2489e         0         0         0         2           sdc        86           tot       1.00000           aqu       120           rhg       1.00000  
      97  aqu0970                970     488.56439      41.70187       2.48522     163.95500        97      s41680n2489e         0         0         0         2           sdc        90           tot       1.00000           aqu       120           rhg       1.00000  
      98  aqu0980                980    1083.68039      41.72905       2.46037     385.61899        98      s41680n2489e         0         0         0         2           sdc       115           tot       1.00000           aqu       120           rhg       1.00000  
      99  aqu0990                990     960.58738      41.74705       2.44270     716.94299        99      s41680n2489e         0         0         0         2           sdc        89           tot       1.00000           aqu       120           rhg       1.00000  
     100  aqu1000               1000      16.91593      41.69052       2.50616     150.11400       100      s41680n2489e         0         0         0         2           sdc        40           tot       1.00000           aqu       120           rhg       1.00000  
     101  aqu1010               1010    1046.41541      41.67297       2.51273     294.81000       101      s41680n2489e         0         0         0         2           sdc        41           tot       1.00000           aqu       120           rhg       1.00000  
     102  aqu1020               1020      45.31720      41.68390       2.48958     144.65700       102      s41680n2489e         0         0         0         2           sdc       116           tot       1.00000           aqu       120           rhg       1.00000  
     103  aqu1030               1030       3.49554      41.67993       2.48850     136.33501       103      s41680n2489e         0         0         0         2           sdc        42           tot       1.00000           aqu       120           rhg       1.00000  
     104  aqu1040               1040     111.17071      41.67518       2.48340     147.14500       104      s41680n2489e         0         0         0         2           sdc        52           tot       1.00000           aqu       120           rhg       1.00000  
     105  aqu1050               1050    1688.84606      41.66474       2.45504     228.27200       105      s41680n2489e         0         0         0         2           sdc        55           tot       1.00000           aqu       120           rhg       1.00000  
     106  aqu1060               1060    1842.96201      41.64612       2.50873     222.06700       106      s41680n2489e         0         0         0         2           sdc        54           tot       1.00000           aqu       120           rhg       1.00000  
     107  aqu1070               1070     680.81919      41.69726       2.46148     252.75999       107      s41680n2489e         0         0         0         2           sdc        43           tot       1.00000           aqu       120           rhg       1.00000  
     108  aqu1080               1080      86.14014      41.68306       2.46166     161.02600       108      s41680n2489e         0         0         0         2           sdc       117           tot       1.00000           aqu       120           rhg       1.00000  
     109  aqu1090               1090    1987.90215      41.71074       2.41828     275.71701       109      s41680n2489e         0         0         0         2           sdc        44           tot       1.00000           aqu       120           rhg       1.00000  
     110  aqu1100               1100     363.84845      41.73645       2.41961     423.07700       110      s41680n2489e         0         0         0         2           sdc       118           tot       1.00000           aqu       120           rhg       1.00000  