bmpuser.str: written by SWAT+ editor v3.0.0 on 2024-06-21 16:08 for SWAT+ rev.61.0
name                  flag       sed_eff      ptlp_eff      solp_eff      ptln_eff      soln_eff      bact_eff  description
bmpusr1                  1       0.20000       0.20000       0.20000       0.20000       0.20000       0.20000  
