 Cell-Channel Connection Information gwflow.chancells: written by SWAT+ editor v3.0.0 on 2024-06-21 16:08 for SWAT+ rev.61.0

      ID        elev_m   channel  riv_length_m      zone  
    3621        186.00        94         30.91        21  
    3853        179.75        94         56.99        21  
    3854        179.00        94        169.88        39  
    4086        173.25        94        270.49        39  
    4318        171.25        94         30.14        22  
    4319        167.00        94        198.51        39  
    4551        161.50        94        185.44        39  
    4552        159.33        94         59.67        39  
    4757        259.00        24        295.18        39  
    4758        276.75        24         18.03        39  
    4776        169.00        25        271.07        39  
    4784        155.25        94        212.98        39  
    4989        242.50        24        294.18        39  
    4990        244.75        24        244.96        39  
    4999        206.50        10         26.85        39  
    5000        192.75        10        239.87        39  
    5001        195.25        10        103.11        39  
    5008        164.75        25         76.97        39  
    5009        173.25        25        160.41        39  
    5016        149.00        94        202.58        22  
    5217        282.25        24         73.69         3  
    5218        292.00        24        200.00        16  
    5219        312.67        24         44.76        39  
    5220        270.50        24        272.38        39  
    5221        251.25        24         10.47        22  
    5222        243.25        24         77.62        22  
    5223        221.75        24        240.34        22  
    5224        225.25        24        183.35        22  
    5228        194.33        24         61.82        22  
    5229        197.75        24        272.49        39  
    5230        190.50        24         81.23        39  
    5231        175.50        10        198.94        39  
    5231        175.50        24         21.81        39  
    5233        172.00        10        245.91        39  
    5234        176.33        10         16.23        39  
    5241        162.50        25        231.10        39  
    5248        143.67        94        204.80        22  
    5448        266.00        24        243.00         3  
    5449        253.00        24        237.64         3  
    5451        260.33        24        187.18        22  
    5452        276.25        24         10.47        22  
    5456        210.00        24         73.84         6  
    5457        202.75        24        240.24         6  
    5458        195.75        24        200.00         6  
    5459        188.50        24        201.32         6  
    5460        182.33        24        189.98        22  
    5462        172.00        24        349.82        22  
    5463        170.00        24        174.80        22  
    5466        166.00        10        245.36        22  
    5473        157.50        25        235.01        39  
    5480        141.00        94        208.54        22  
    5680        261.25        24        272.37         3  
    5694        178.75        24         26.68         6  
    5698        159.33        10        119.50         6  
    5699        162.00        10        184.41        22  
    5704        162.25        25        113.62        39  
    5705        153.50        25        103.23        39  
    5712        141.50        94        237.26         5  
    5713        142.25        94         76.63        22  
    5897        379.50        24         44.77         3  
    5911        282.25        24        188.74         3  
    5912        276.50        24        187.92         3  
    5931        160.67        10         89.77         6  
    5932        155.25        10        172.38         6  
    5937        151.50        25        224.55        39  
    5945        136.75        94        262.89         5  
    5946        140.00        94         13.89        22  
    6129        367.00        24        183.61         3  
    6130        361.50        24        210.65         3  
    6131        359.25        24        210.40         3  
    6132        352.75        24        251.69         3  
    6133        357.50        24        266.54         3  
    6134        367.00        24         22.00         3  
    6137        340.00        24         45.06         3  
    6143        278.00        24        237.65         3  
    6164        160.50        10        175.07         6  
    6165        151.00        10        137.05         6  
    6169        149.33        25        220.70        39  
    6178        132.00        94        255.55         5  
    6366        336.75        24        219.45         3  
    6367        328.00        24        230.84         3  
    6368        329.00        24        231.05         3  
    6369        318.00        24        186.35         3  
    6370        313.75        24        231.10         3  
    6371        312.75        24        230.63         3  
    6372        319.33        24        221.22         3  
    6373        325.50        24        176.88         3  
    6375        289.50        24        214.10         3  
    6397        160.00        10        150.08         6  
    6398        148.00        10        232.70         6  
    6401        146.75        25        222.01        22  
    6402        141.33        25         15.69        39  
    6410        130.00        94        208.99         5  
    6411        131.25        94         49.40         5  
    6605        318.50        24        124.30         3  
    6606        307.75        24        231.05         3  
    6607        308.75        24        103.05         3  
    6630        157.75        10         17.20         6  
    6631        147.00        10        243.35         6  
    6632        143.75        10        231.10         6  
    6633        139.25        10         16.05        22  
    6633        139.25        25        203.28        22  
    6634        138.00        25        102.12        22  
    6643        127.25        94        251.80         5  
    6865        143.25        10        235.74         6  
    6866        134.50         9         23.07        22  
    6866        134.50        10         98.98        22  
    6866        134.50        25        250.06        22  
    6875        126.50        94        214.26         6  
    6876        122.50        94        197.78         5  
    7098        140.67         8        138.18        22  
    7098        140.67         9         12.26        22  
    7099        132.33         8        147.03        22  
    7108        121.50        94         71.23         6  
    7109        118.50        94        205.55         6  
    7110        115.75        94         57.60        16  
    7111        120.75        94         13.89        39  
    7331        141.25         8        175.43        22  
    7332        129.75         8        111.70        39  
    7341        118.00        94        114.22         6  
    7342        113.33        94        176.19        22  
    7343        117.00        94        262.15        22  
    7564        135.75         8        243.88        22  
    7565        126.50         8         43.25        39  
    7575        112.50        94        241.45        22  
    7797        136.00         8        200.41        21  
    7798        126.00         8        207.35        39  
    7807        112.50        94         90.32         6  
    7808        109.00        94        186.46        22  
    8030        131.25         8         44.45        39  
    8031        121.50         8        272.49        39  
    8032        121.00         8         15.87        39  
    8040        107.50        94        255.12        22  
    8052         99.00        83        177.20        39  
    8264        119.33         8         46.69        39  
    8264        119.33        99        208.38        39  
    8272        107.75        94        138.39         6  
    8273        103.50        94         99.73        22  
    8284         98.00        83         19.92        22  
    8285         94.25        83        232.84        39  
    8429        450.25        21         81.30         3  
    8496        117.50        99        227.82        39  
    8505        105.33        94        212.38         6  
    8506        100.67        94        145.41        22  
    8517         92.25        83        241.45        22  
    8661        437.75        21         33.03         3  
    8662        432.00        21        216.82         3  
    8728        119.25        99        251.80        39  
    8738        102.25        94        106.38        22  
    8739        100.50        94        251.41        22  
    8749         91.75        83         73.03        22  
    8750         89.50        83        150.89        22  
    8894        418.50        21        214.88         3  
    8960        135.00        99        119.04        21  
    8961        121.00        99        172.38        39  
    8971        102.00        94        116.73        22  
    8972         98.67        94        155.76        22  
    8982         91.50        83        217.96        22  
    8983         88.00        83        136.67        22  
    9126        421.00        21        217.02         3  
    9193        131.75        99         69.07        21  
    9194        116.50        99        249.27        39  
    9195        112.33        99        189.37        39  
    9204         99.25        84         81.11        22  
    9204         99.25        94         45.97        22  
    9205         97.00        84        205.73        39  
    9215         93.25        83        119.36        22  
    9216         86.67        83        290.77        22  
    9217         86.50        83        110.98        39  
    9358        413.00        21         83.47         3  
    9359        409.50        21        179.37         3  
    9427        116.00        99         52.03        39  
    9428        110.00        99        264.73        39  
    9429        107.67        99         16.05        39  
    9437         96.25        84        213.41        22  
    9449         83.50        83        211.48        22  
    9450         83.33        83         75.60        39  
    9591        392.75        21        204.61         3  
    9661        105.00        99        241.45        39  
    9669         99.67        84        248.79        22  
    9682         83.00        83        266.38        39  
    9823        385.75        21        245.78         3  
    9893        108.33        99        150.26        39  
    9894        103.50        99        111.88        39  
    9901         99.75        84        106.02         6  
    9902         93.25        84        231.07        22  
    9914         81.75        83        231.05        39  
   10055        391.00        21          0.83         3  
   10056        374.75        21        271.41         3  
   10057        368.00        21        171.46         3  
   10126        105.67        99        231.10        39  
   10134         95.00        84         42.54        22  
   10135         92.00        84        284.21        39  
   10146         82.00        83        250.90        39  
   10147         81.50        83         12.63        39  
   10289        367.00        21        161.89         3  
   10290        373.75        21         81.37         3  
   10358        113.25        99        150.08        39  
   10359        105.75        99        228.30        39  
   10360        100.50        99        104.33        39  
   10367         93.33        84         20.72        22  
   10368         90.33        84        258.86        39  
   10379         80.00        83        299.49        39  
   10380         81.00        83         12.63        39  
   10522        354.25        21        203.58         3  
   10592        106.50        99        139.91        39  
   10593        100.00        99        185.29        39  
   10600         91.25        84        238.65        39  
   10612         77.67        83        248.48        39  
   10754        355.25        21        189.53        21  
   10755        344.50        21        213.04         3  
   10756        355.00        21        103.10         3  
   10825        103.25        99        122.53        39  
   10826         96.50        99        147.21        39  
   10832         92.75        84         20.54        39  
   10833         88.67        84        283.92        39  
   10844         76.67        83        241.39        39  
   10962        458.75        23        237.26        21  
   10963        437.75        23        220.70        21  
   10964        423.75        23        231.05        40  
   10965        422.50        23        241.39        40  
   10966        449.50        23         91.35        40  
   10988        332.50        21        240.18         3  
   11058         98.25        99        147.31        39  
   11059         94.00        99        200.14        39  
   11065         89.33        84         53.18        39  
   11066         86.00        84        185.57        39  
   11076         77.00        83        171.89        39  
   11077         75.50        83        109.12        39  
   11192        513.00        23        203.58         3  
   11193        482.25        23        235.11         3  
   11194        467.25        23         70.01         3  
   11198        423.00        23        170.74        40  
   11199        435.00        23        237.02        40  
   11220        335.00        21        200.91         3  
   11221        338.50        21         50.21         3  
   11265        248.00        19        148.34         3  
   11291         96.25        99         79.60        39  
   11292         93.67        99        228.23        39  
   11298         85.75        84        261.81        39  
   11299         83.75        84         14.97        39  
   11309         75.00        83        231.05        39  
   11325         83.00        22         32.65        39  
   11326         80.00        22        134.20        39  
   11417        596.50        23        174.37         3  
   11418        566.50        23        208.70         3  
   11419        549.50        23        261.41         3  
   11420        531.00        23        132.87         3  
   11421        518.50        23        229.77         3  
   11422        510.25        23        272.70         3  
   11423        506.25        23        234.73         3  
   11424        498.00        23         91.99         3  
   11431        405.50        23          2.52        40  
   11432        402.00        23        269.97        40  
   11453        316.75        21        300.06         3  
   11496        242.25        19        203.30         3  
   11497        226.00        19        166.75         3  
   11498        212.50        19        219.02         3  
   11499        203.75        19        178.87         3  
   11500        191.75        19         79.62         3  
   11524         96.75        99         44.26        23  
   11525         92.25        99        224.70        39  
   11531         83.25        84        241.45        39  
   11541         74.50        83        241.39        39  
   11556         86.25        22          7.55        39  
   11557         82.25        22        275.29        16  
   11651        563.50        23         82.09         3  
   11652        536.00        23        141.37         3  
   11664        409.00        23        158.49        40  
   11665        398.25        23        222.49        40  
   11666        400.50        23        239.70        40  
   11667        406.00        23        153.26        40  
   11685        320.00        21         11.50        21  
   11686        303.75        21        261.66         3  
   11687        307.00        21        156.43        21  
   11731        189.50        19        124.33         3  
   11732        175.00        19        214.34         3  
   11733        165.67        19        234.33         3  
   11734        164.75        19        200.95         3  
   11757         95.33        99        231.05        22  
   11762         85.33        84         48.03        39  
   11763         83.50        84        195.90        39  
   11773         74.67        83        200.00        24  
   11786         85.00        22         63.05        39  
   11787         83.75        22        203.74        22  
   11788         81.50        22        313.54        22  
   11899        397.50        23         89.82        40  
   11900        382.00        23        210.35        40  
   11901        387.25        23        220.70        40  
   11902        396.50        23        124.33        40  
   11902        396.50        65         54.45        40  
   11919        297.25        21        218.27        21  
   11966        154.00        19        192.37         3  
   11967        146.25        19        201.24         3  
   11968        150.00        19        215.16         3  
   11969        150.25        19         75.71         6  
   11970        138.25        19        214.81         6  
   11971        132.00        19        227.13        10  
   11972        129.75        19         60.89        10  
   11989         96.33        99         51.95        16  
   11990         90.00        99        199.79        22  
   11995         83.00        20        104.42        39  
   11995         83.00        84        182.66        39  
   12005         74.00        83        200.00        24  
   12017         84.50        22        204.43        22  
   12018         80.00        22        168.00        22  
   12019         79.75        22         16.95        22  
   12134        361.50        65        231.05        40  
   12135        359.25        65         22.34        40  
   12136        342.75        65        288.50        40  
   12137        326.25        65        241.39        40  
   12138        318.00        65        229.78        40  
   12139        312.25        65        246.95        40  
   12140        311.00        65        165.42        40  
   12151        305.75        21         41.64        21  
   12152        287.50        21        199.81        40  
   12200        151.25        19         82.74         3  
   12201        140.75        19        263.64         3  
   12204        131.00        19        160.96         6  
   12205        128.00        19        281.22        10  
   12206        136.50        19          0.46         6  
   12208        124.50        19        121.41        17  
   12222         90.67        99        179.82        22  
   12223         88.33        99        115.23        39  
   12227         83.00        20         74.46        39  
   12228         82.50        20        229.16        22  
   12237         73.50        83         90.04        24  
   12238         73.33        83        215.36        24  
   12248         80.50        22        198.67        22  
   12249         78.25        22         98.81        22  
   12366        360.00        65        196.27        40  
   12367        341.75        65        289.77        40  
   12372        314.75        65         55.28        40  
   12373        302.00        65        250.63        40  
   12374        294.50        65        232.16        40  
   12375        287.50        65        271.22        40  
   12376        283.75        67         60.31        40  
   12384        283.50        21        293.74        40  
   12438        115.00        19        241.54         6  
   12439        113.50        19        287.13         3  
   12440        109.50        19        145.02        21  
   12441        105.75        19        249.32        39  
   12442        103.75        19        243.93        39  
   12443        111.25        19         89.42        39  
   12455         88.75        99        150.08        39  
   12456         86.67         7         27.40        39  
   12456         86.67        99        180.31        39  
   12460         82.00        20        231.10        22  
   12470         72.50        83         57.14        24  
   12471         72.00        83        254.98        39  
   12479         74.00        22        113.37        22  
   12480         74.50        22        148.77        16  
   12607        286.50        65          4.50        40  
   12608        277.50        65        302.72        40  
   12608        277.50        67         22.87        40  
   12609        273.50        65        172.90        40  
   12609        273.50        66         62.12        40  
   12609        273.50        67        103.26        40  
   12609        273.50       103         88.52        40  
   12610        274.50       103         65.98        40  
   12616        281.75        21        220.70        40  
   12675        103.33        19        223.02        39  
   12688         88.75         7         79.42        39  
   12689         85.67         7        182.73        39  
   12692         81.50        20        301.76        22  
   12703         71.00        83        177.77        24  
   12704         72.25        83        146.96        39  
   12709         73.33        22        108.81        22  
   12710         72.75        22        251.74        22  
   12711         73.50        22        122.16         6  
   12842        273.00       103        225.44        40  
   12843        267.75       103        277.57        40  
   12844        265.50       103        189.93        40  
   12848        275.25        21        266.38        40  
   12905        116.25        19          0.89        21  
   12906        100.75        19        249.27        39  
   12907        102.75        19        184.61        39  
   12921         86.00         7        225.04        39  
   12922         82.50         7         16.41        39  
   12922         82.50        20          3.95        39  
   12923         81.50        20        287.13        39  
   12924         82.25        20         56.37        22  
   12936         70.50        83        175.50        39  
   12937         71.00        83         90.88        39  
   12940         72.50        22         34.40        22  
   12941         71.25        22        219.62        22  
   13076        277.25       103         30.77        40  
   13077        260.75        14         32.98        40  
   13077        260.75       103        253.41        40  
   13078        257.50        14         30.29        40  
   13080        265.25        21        280.68        40  
   13081        270.50        21         89.53        40  
   13137        100.25        19        253.96        21  
   13148         85.75        82         44.74        39  
   13154         81.50         7        233.27        39  
   13154         81.50        20        222.92        39  
   13169         69.50        83        246.22        39  
   13170         71.00        83        219.64        39  
   13172         69.50        22        251.74         6  
   13310        250.75        14        266.43        40  
   13313        258.75        21        172.08        40  
   13314        266.50        21        135.75        40  
   13369         90.00        19        242.13         3  
   13370         93.50        19         82.45        21  
   13380         87.25        82         15.67        39  
   13381         82.25        82        312.11        39  
   13382         82.00        82        272.49        39  
   13383         80.50        82         17.31        39  
   13385         80.50        81         31.23        39  
   13386         81.33         7         30.21        39  
   13386         81.33        20         65.55        39  
   13386         81.33        81        179.95        39  
   13402         69.25        83         52.92        22  
   13403         69.00        22         14.59        22  
   13403         69.00        72        140.52        22  
   13403         69.00        83        231.08        22  
   13404         68.50        22         96.64         6  
   13542        252.67        14         75.71        40  
   13543        244.50        14        232.12        40  
   13546        253.25        21        201.78        40  
   13547        266.00        21         99.99        40  
   13602         90.50        19        169.29         3  
   13603         88.00        19        220.70        21  
   13604         93.25        19        157.33        21  
   13615         78.00        82        212.46        39  
   13616         78.00        81         39.46        39  
   13617         82.50        81        266.25        39  
   13634         70.00        72         34.42        22  
   13635         68.00        72        227.67        22  
   13775        250.00        14         65.36        40  
   13776        242.25        14        196.78        40  
   13779        243.75        21        231.10        40  
   13836         88.25        19        122.04         3  
   13837         83.75        19        210.78        16  
   13846         83.00        82         74.62        39  
   13847         77.50        81        176.74        39  
   13847         77.50        82        164.77        39  
   13848         79.67        81        201.99        39  
   13866         70.50        72        249.74        39  
   13956       1194.25        96        133.66         7  
   13957       1149.50        96        215.53         3  
   13958       1107.00        96        226.98         3  
   13959       1086.75        96         39.82         3  
   14008        237.75        14        101.23        40  
   14009        242.25        14        187.86        40  
   14011        240.25        21        230.52        40  
   14012        244.75        21          2.54        40  
   14069        100.50        19         38.33         4  
   14070         83.25        19        220.70         4  
   14071         85.75        19        232.26        22  
   14078         81.00        82        243.40        39  
   14079         77.00        81        241.39        39  
   14092         70.75        15        102.30        39  
   14093         70.67        15        227.14        39  
   14094         70.33        15        200.00        39  
   14095         71.50        15         90.26        39  
   14095         71.50        72        109.74        39  
   14096         71.00        72        220.70        39  
   14097         71.67        72        224.86        39  
   14098         69.75        72         98.63        39  
   14191       1074.50        96        247.33         3  
   14192       1064.00        96         32.63         3  
   14241        229.00        14        210.35        40  
   14243        230.00        21        209.39        40  
   14244        243.25        21         21.66        40  
   14303         80.75        19        201.95        22  
   14310         81.00         6        141.03        39  
   14310         81.00        81         46.14        39  
   14310         81.00        82        125.35        39  
   14311         76.33        81         54.23        39  
   14323         68.00        15        147.98        39  
   14324         67.00        15        159.84        39  
   14424       1030.50        96        231.32         3  
   14473        234.25        14        224.01        40  
   14474        221.25        14        200.77        40  
   14476        228.25        21        210.35        40  
   14535         78.25        19        249.89        22  
   14542         81.00         6        239.55        39  
   14554         67.00        13         64.35        39  
   14554         67.00        15        108.62        39  
   14554         67.00        92         87.92        39  
   14555         66.00        15        134.86        39  
   14555         66.00        92        126.34        39  
   14595        139.50        93        114.08        39  
   14596        139.00        93        231.05        39  
   14597        137.25        93        237.11        39  
   14598        139.00        91        247.70        39  
   14598        139.00        93         74.93        39  
   14599        140.33        91         30.73        39  
   14656        995.50        96        204.90         3  
   14706        220.50        14         40.20        40  
   14707        209.50        14        262.52        40  
   14708        208.00        14        136.17        40  
   14708        208.00        21        195.76        40  
   14708        208.00       102         64.53        40  
   14736        165.33         1        231.38         3  