hmd.cli: Relative humidity file names - file written by SWAT+ editor 2024-02-27 21:48:54.972833
filename
hAngles.hmd
hArbucies.hmd
hCassa.hmd
hDosrius.hmd
hFarners.hmd
hFornells.hmd
hGirona.hmd
hMalgrat.hmd
hTagamanent.hmd
hVilobi.hmd
