initial.cha: written by SWAT+ editor v3.0.0 on 2024-06-21 16:07 for SWAT+ rev.61.0
name                       org_min              pest              path              hmet              salt  description       
initcha1                   no_init              null              null              null              null  null              
