management.sch: written by SWAT+ editor v3.0.0 on 2024-06-21 16:08 for SWAT+ rev.61.0
name                                       numb_ops  numb_auto            op_typ       mon       day        hu_sch          op_data1          op_data2      op_data3  
agrr_rot                          0          1  
                                                   pl_hv_summer1   agrr  
agrl_rot                          0          1  
                                                   pl_hv_summer1   agrl  
