om_water.ini: written by SWAT+ editor v3.0.0 on 2024-06-21 16:08 for SWAT+ rev.61.0
name                       flo           sed          orgn          sedp           no3          solp         chl_a           nh3           no2       cbn_bod        dis_ox           san           sil           cla           sag           lag           grv           tmp             c  
no_init                0.00000       0.00000       0.00000       0.00000       0.00000       0.00000       0.00000       0.00000       0.00000       0.00000       0.00000       0.00000       0.00000       0.00000       0.00000       0.00000       0.00000       0.00000       0.00000  
