plant.ini: written by SWAT+ editor v3.0.0 on 2024-06-21 16:08 for SWAT+ rev.61.0
pcom_name          plt_cnt  rot_yr_ini          plt_name     lc_status      lai_init       bm_init      phu_init      plnt_pop      yrs_init      rsd_init  
crir_comm                1         1  
                                        crir             n       0.00000       0.00000       0.00000       0.00000       0.00000   10000.00000  
rngb_comm                1         1  
                                        rngb             y       2.00000   50000.00000       0.00000       0.00000       1.00000   10000.00000  
frse_comm                1         1  
                                        frse             y       2.00000   50000.00000       0.00000       0.00000       1.00000   10000.00000  
agrr_comm                1         1  
                                        agrr             n       0.00000       0.00000       0.00000       0.00000       0.00000   10000.00000  
agrl_comm                1         1  
                                        agrl             n       0.00000       0.00000       0.00000       0.00000       0.00000   10000.00000  
frsd_comm                1         1  
                                        frsd             y       2.00000   50000.00000       0.00000       0.00000       1.00000   10000.00000  
past_comm                1         1  
                                        past             y       0.00000   20000.00000       0.00000       0.00000       1.00000   10000.00000  
frst_comm                1         1  
                                        frst             y       2.00000   50000.00000       0.00000       0.00000       1.00000   10000.00000  
orcd_comm                1         1  
                                        orcd             y       2.00000   20000.00000       0.00000       0.00000       1.00000   10000.00000  
wetl_comm                1         1  
                                        wetl             y       2.00000   50000.00000       0.00000       0.00000       1.00000   10000.00000  
