slr.cli: Solar radiation file names - file written by SWAT+ editor 2024-02-27 21:48:57.459270
filename
sAngles.slr
sArbucies.slr
sCassa.slr
sDosrius.slr
sFarners.slr
sGirona.slr
sMalgrat.slr
