time.sim: written by SWAT+ editor v3.0.0 on 2024-06-21 16:07 for SWAT+ rev.61.0
day_start  yrc_start   day_end   yrc_end      step  
       0      2000         0      2008         0  
