tmp.cli: Temperature file names - file written by SWAT+ editor 2024-02-27 21:48:58.033918
filename
tAngles.tmp
tArbucies.tmp
tCassa.tmp
tDosrius.tmp
tFarners.tmp
tFornells.tmp
tGirona.tmp
tMalgrat.tmp
tTagamanent.tmp
tVilobi.tmp
