weather-wgn.cli: written by SWAT+ editor v3.0.0 on 2024-06-21 16:07 for SWAT+ rev.61.0
wgn10002                       41.36900       2.13900      44.00000        35  
 tmp_max_ave   tmp_min_ave    tmp_max_sd    tmp_min_sd       pcp_ave        pcp_sd      pcp_skew       wet_dry       wet_wet      pcp_days       pcp_hhr       slr_ave       dew_ave       wnd_ave  
    13.35097       5.11635       2.66174       2.81988      43.28343       4.72408       5.15020       0.32348       0.67831      15.54286       9.52270       7.99816       0.70779       3.68663  
    14.37051       5.59212       2.89441       2.68531      36.15171       4.10710       5.23403       0.31548       0.67216      13.85714      10.26136      11.35996       0.70447       3.62247  
    16.43508       7.70312       2.74346       2.51041      39.55943       4.65915       6.29272       0.33810       0.64068      15.02857      12.80436      16.20461       0.70414       3.66271  
    18.24343       9.72326       2.51119       2.09407      41.72143       4.19520       5.18636       0.38430       0.67138      16.17143       9.51564      20.50476       0.71392       3.67721  
    21.58825      13.01590       2.82604       2.35688      48.84143       5.30421       5.99879       0.36158       0.65343      15.82857      14.69337      24.24100       0.72847       3.34203  
    25.35450      17.05006       2.78368       2.16087      28.99286       3.98356       8.03484       0.33570       0.61191      13.91429      13.05371      26.53429       0.70837       3.20560  
    27.81489      20.01696       2.21411       1.81957      21.90857       3.77770       8.84181       0.27697       0.52381      11.40000      13.82767      26.34654       0.69194       3.17665  
    27.65908      20.59465       2.12057       1.71171      44.35171       4.80426       5.73545       0.35130       0.60392      14.57143      14.77806      22.72350       0.69700       3.09281  
    25.29293      17.90558       2.24012       2.28169      71.11886       7.51931       5.54686       0.36779       0.66179      15.62857      21.09437      17.75810       0.71071       3.20550  
    21.73931      13.96270       2.79855       2.80106      88.12829       8.83624       5.48960       0.41684       0.66054      17.08571      23.27509      12.67834       0.71305       3.51634  
    16.85842       8.90961       2.84603       3.26483      58.59000       6.43087       5.45857       0.39955       0.70266      17.20000      16.53298       8.57714       0.69987       3.52666  
    13.93508       6.10241       2.52380       2.89143      36.31914       4.67354       7.88706       0.33088       0.66728      15.45714      18.66900       6.97679       0.69522       3.79603  
wgn10012                       41.37300       2.07200      75.00000        35  
 tmp_max_ave   tmp_min_ave    tmp_max_sd    tmp_min_sd       pcp_ave        pcp_sd      pcp_skew       wet_dry       wet_wet      pcp_days       pcp_hhr       slr_ave       dew_ave       wnd_ave  
    13.85579       4.56098       2.70254       2.83491      43.87686       4.74590       5.04009       0.29877       0.67054      14.74286       9.93437       7.99816       0.70779       3.68663  
    14.93033       4.90161       2.95125       2.70167      36.12829       4.16281       5.38120       0.30116       0.66879      13.45714      11.17882      11.35996       0.70447       3.62247  
    17.47366       7.09076       2.83538       2.53188      40.65771       4.79409       6.44212       0.30648       0.65953      14.68571      13.41129      16.20461       0.70414       3.66271  
    19.54250       9.30857       2.62238       2.11449      44.55514       4.42519       5.24618       0.33468       0.70036      15.82857      10.13668      20.50476       0.71392       3.67721  
    23.03377      12.87680       2.94027       2.38342      51.22857       5.46573       5.99260       0.36571       0.65714      16.00000      15.49555      24.24100       0.72847       3.34203  
    27.07212      17.11444       2.88605       2.18451      29.44000       3.87428       7.74691       0.30877       0.63333      13.71429      12.10803      26.53429       0.70837       3.20560  
    29.84499      19.94036       2.28898       1.83264      21.80457       3.65000       8.02775       0.27561       0.51276      11.20000      11.14588      26.34654       0.69194       3.17665  
    30.25598      20.28741       2.21223       1.73078      45.42686       4.73207       5.26415       0.32874       0.62103      14.40000      12.68438      22.72350       0.69700       3.09281  
    26.90572      17.22647       2.33068       2.30039      72.08971       7.74504       5.89964       0.35742       0.65985      15.37143      22.91281      17.75810       0.71071       3.20550  
    22.85690      13.25831       2.87683       2.81380      88.41686       8.69757       5.30749       0.37678       0.68855      16.97143      22.86341      12.67834       0.71305       3.51634  
    17.57532       8.26427       2.90263       3.27770      60.36600       6.73249       5.57081       0.36214       0.68794      16.11429      18.08559       8.57714       0.69987       3.52666  
    14.44613       5.49994       2.55333       2.90807      37.78314       4.76097       7.41270       0.28930       0.64476      13.91429      18.20322       6.97679       0.69522       3.79603  
wgn10022                       41.37800       2.00600     155.00000        35  
 tmp_max_ave   tmp_min_ave    tmp_max_sd    tmp_min_sd       pcp_ave        pcp_sd      pcp_skew       wet_dry       wet_wet      pcp_days       pcp_hhr       slr_ave       dew_ave       wnd_ave  
    13.61009       4.26915       2.79716       2.86071      45.95886       4.92575       5.00112       0.36821       0.68707      16.80000      10.74126       7.92535       0.72712       3.04728  
    14.70536       4.47102       3.09245       2.73094      37.36686       4.34535       5.59463       0.37284       0.67048      15.00000      12.53853      11.24267       0.71007       2.97620  
    17.53963       6.67201       3.05839       2.57756      43.13371       5.07899       6.58272       0.34791       0.67263      15.97143      14.47694      15.92811       0.68932       2.99614  
    19.67996       8.83742       2.88631       2.16155      48.92800       4.76600       5.21897       0.36325       0.70790      16.62857      11.65636      20.07238       0.68892       3.05747  
    23.34360      12.45677       3.21488       2.43771      54.72457       5.69310       5.95687       0.36105       0.69932      16.91429      16.43888      23.82364       0.69436       2.76977  
    27.73019      16.86983       3.14452       2.23380      30.59143       3.79949       7.24110       0.37970       0.61004      14.80000      11.25645      26.27810       0.66233       2.64782  
    30.47774      19.73623       2.48817       1.86240      21.91229       3.55025       7.64934       0.28167       0.54348      11.82857       9.59327      26.12811       0.65196       2.57393  
    30.78705      19.98907       2.44797       1.77077      46.70543       4.68784       4.82331       0.35284       0.59325      14.40000      11.68224      22.48018       0.67369       2.43124  
    27.07481      16.73952       2.55145       2.32826      73.67829       7.98876       6.13280       0.40202       0.64144      15.85714      23.93142      17.45143       0.70744       2.44457  
    22.77394      12.73067       3.05744       2.83326      90.10229       8.69497       5.10168       0.43197       0.67846      17.77143      22.31999      12.45806       0.71669       2.68908  
    17.21034       7.81924       3.02154       3.29571      63.60543       7.13639       5.57011       0.44266       0.68567      17.54286      19.52764       8.42857       0.71890       2.82367  
    14.02010       5.06281       2.63672       2.93479      40.54114       4.97102       6.89092       0.37182       0.66899      16.40000      17.87387       6.93872       0.71830       3.10183  
wgn10032                       41.38200       1.94000     295.00000        35  
 tmp_max_ave   tmp_min_ave    tmp_max_sd    tmp_min_sd       pcp_ave        pcp_sd      pcp_skew       wet_dry       wet_wet      pcp_days       pcp_hhr       slr_ave       dew_ave       wnd_ave  
    12.54296       3.43831       2.92960       2.89195      49.23457       5.24757       5.03245       0.37295       0.69347      17.05714      12.01158       7.92535       0.72712       3.04728  
    13.78048       3.60951       3.30456       2.77738      39.58429       4.63675       5.83784       0.40455       0.67577      15.68571      14.13584      11.24267       0.71007       2.97620  
    16.89170       5.70549       3.37735       2.65674      46.82343       5.50035       6.65697       0.38650       0.68289      17.02857      15.71433      15.92811       0.68932       2.99614  
    18.92693       7.56292       3.25170       2.24720      54.57000       5.18903       5.12028       0.39529       0.73120      17.85714      13.36188      20.07238       0.68892       3.05747  
    22.81577      11.29121       3.58701       2.52599      59.20286       5.98111       5.89963       0.38877       0.69040      17.25714      17.50454      23.82364       0.69436       2.76977  
    27.40528      15.73707       3.51039       2.31978      32.68114       3.82152       6.72987       0.40755       0.62523      15.62857      10.60952      26.27810       0.66233       2.64782  
    30.16379      18.67820       2.76877       1.92440      22.17914       3.48889       7.69773       0.34537       0.50893      12.80000      10.67539      26.12811       0.65196       2.57393  
    29.82243      18.87250       2.77945       1.84941      47.91743       4.73152       4.57460       0.36888       0.58869      14.65714      10.59776      22.48018       0.67369       2.43124  
    26.22120      15.69186       2.85872       2.36859      75.35886       8.20260       6.10838       0.43776       0.62852      16.22857      23.65853      17.45143       0.70744       2.44457  
    21.81627      11.77378       3.29936       2.85746      92.98229       8.83815       4.88671       0.41667       0.68395      17.62857      21.33667      12.45806       0.71669       2.68908  
    16.17210       6.97790       3.17181       3.31443      67.93714       7.62818       5.49821       0.46731       0.69702      18.20000      20.90147       8.42857       0.71890       2.82367  
    12.93693       4.10619       2.77557       2.96337      44.30714       5.30258       6.46829       0.40619       0.67167      17.14286      17.73508       6.93872       0.71830       3.10183  
wgn10044                       41.38700       1.87300     383.00000        35  
 tmp_max_ave   tmp_min_ave    tmp_max_sd    tmp_min_sd       pcp_ave        pcp_sd      pcp_skew       wet_dry       wet_wet      pcp_days       pcp_hhr       slr_ave       dew_ave       wnd_ave  
    11.61688       2.25740       2.99382       2.90513      50.50629       5.37112       5.08425       0.36235       0.69543      16.88571      12.49854       7.92535       0.72712       3.04728  
    13.01658       2.59182       3.40932       2.81149      40.14086       4.73580       6.02822       0.41866       0.69352      16.31429      14.89097      11.24267       0.71007       2.97620  
    16.27687       4.70317       3.52465       2.70935      48.45543       5.69578       6.72001       0.38037       0.68792      17.02857      16.37772      15.92811       0.68932       2.99614  
    18.28770       6.58057       3.41418       2.30278      57.52771       5.38307       5.01116       0.42476       0.72571      18.22857      14.19936      20.07238       0.68892       3.05747  
    22.30127      10.33039       3.74211       2.58499      61.61571       6.10365       5.92550       0.39413       0.69079      17.37143      18.35142      23.82364       0.69436       2.76977  
    26.96524      14.64701       3.66474       2.38040      34.06000       3.89739       6.62529       0.39686       0.62662      15.45714      11.35290      26.27810       0.66233       2.64782  
    29.78407      17.76854       2.87212       1.97471      21.90971       3.36937       7.87608       0.35040       0.52391      13.14286      11.06355      26.12811       0.65196       2.57393  
    29.40583      18.05285       2.91100       1.91107      48.52857       4.80714       4.47692       0.36678       0.58185      14.48571       9.01457      22.48018       0.67369       2.43124  
    25.68048      14.90198       2.99842       2.40164      75.64257       8.19922       5.86730       0.42052       0.62206      15.80000      22.47055      17.45143       0.70744       2.44457  
    21.07577      10.93592       3.40960       2.86919      93.53857       8.87344       4.73662       0.42340       0.67642      17.57143      19.52058      12.45806       0.71669       2.68908  
    15.42126       5.94364       3.24173       3.31937      69.64857       7.78876       5.32317       0.45519       0.69169      17.88571      20.11811       8.42857       0.71890       2.82367  
    12.09071       2.89389       2.85376       2.97593      45.92257       5.44278       6.25546       0.42316       0.67049      17.42857      17.00817       6.93872       0.71830       3.10183  
wgn10121                       41.41400       2.21100      45.00000        35  
 tmp_max_ave   tmp_min_ave    tmp_max_sd    tmp_min_sd       pcp_ave        pcp_sd      pcp_skew       wet_dry       wet_wet      pcp_days       pcp_hhr       slr_ave       dew_ave       wnd_ave  
    12.62560       6.06473       2.66645       2.82517      43.71257       4.83526       5.37537       0.30866       0.67797      15.17143      10.28052       7.99816       0.70779       3.68663  
    13.54800       6.50192       2.90455       2.68404      36.62371       4.08733       5.11467       0.30357       0.68454      13.85714      10.32993      11.35996       0.70447       3.62247  
    15.02360       8.60333       2.74911       2.51924      39.87800       4.71346       6.48199       0.33273       0.65414      15.20000      13.10590      16.20461       0.70414       3.66271  
    16.26056      10.08556       2.52103       2.10417      41.12657       4.08325       5.02037       0.39831       0.67474      16.51429       8.98899      20.50476       0.71392       3.67721  
    19.24560      12.95557       2.84728       2.35725      48.62714       5.09757       5.82173       0.36692       0.65474      15.97143      13.41409      24.24100       0.72847       3.34203  
    22.81448      16.66633       2.81549       2.16062      30.53771       4.11617       7.86570       0.33217       0.59789      13.57143      14.24453      26.53429       0.70837       3.20560  
    25.53152      19.68784       2.25906       1.81692      21.63743       3.56106       8.69443       0.27391       0.52152      11.28571      13.66581      26.34654       0.69194       3.17665  
    25.41062      20.56645       2.16040       1.71457      42.10314       4.39241       5.43144       0.36525       0.60461      14.88571      12.90594      22.72350       0.69700       3.09281  
    23.50494      18.35386       2.25571       2.28302      68.57057       7.09256       5.46307       0.39645       0.62983      15.51429      17.34280      17.75810       0.71071       3.20550  
    20.00546      14.58701       2.80358       2.81195      86.10829       8.52539       5.42948       0.40909       0.67055      17.17143      22.25251      12.67834       0.71305       3.51634  
    15.95730       9.94803       2.84744       3.27728      57.82800       6.18724       5.33674       0.38852       0.70519      17.05714      16.35944       8.57714       0.69987       3.52666  
    13.41604       7.17411       2.52233       2.89731      36.02429       4.68912       8.11831       0.31524       0.64981      14.68571      19.19894       6.97679       0.69522       3.79603  
wgn10131                       41.41900       2.14500     119.00000        35  
 tmp_max_ave   tmp_min_ave    tmp_max_sd    tmp_min_sd       pcp_ave        pcp_sd      pcp_skew       wet_dry       wet_wet      pcp_days       pcp_hhr       slr_ave       dew_ave       wnd_ave  
    12.95901       4.33339       2.75734       2.85186      45.27171       4.93625       5.16956       0.36179       0.69815      16.94286       9.96496       7.99816       0.70779       3.68663  
    14.16306       4.75441       3.04494       2.71233      37.57457       4.23960       5.26862       0.33833       0.69732      14.91429      11.63990      11.35996       0.70447       3.62247  
    16.64146       6.89779       2.97016       2.56316      42.01743       4.97172       6.58101       0.35577       0.67257      16.14286      14.17348      16.20461       0.70414       3.66271  
    18.58000       9.01431       2.78434       2.14685      45.05686       4.42050       5.18676       0.35837       0.71404      16.68571      10.64011      20.50476       0.71392       3.67721  
    22.18067      12.37473       3.11636       2.40750      52.15143       5.35108       5.75881       0.38067       0.66609      16.51429      14.64632      24.24100       0.72847       3.34203  
    26.15390      16.57241       3.06712       2.20553      31.53314       4.09922       7.65116       0.34054       0.61818      14.14286      13.39717      26.53429       0.70837       3.20560  
    28.41076      19.47347       2.45931       1.84442      21.96457       3.50555       7.62141       0.28928       0.51238      11.54286      10.69186      26.34654       0.69194       3.17665  
    28.04673      19.95053       2.40069       1.74871      42.88314       4.35020       5.20430       0.35242       0.62548      15.02857      12.31034      22.72350       0.69700       3.09281  
    25.40503      17.08328       2.47374       2.30928      69.27943       7.36937       5.75369       0.38086       0.66547      15.97143      18.77251      17.75810       0.71071       3.20550  
    21.58988      13.15144       2.98606       2.83365      87.68314       8.51880       5.24108       0.42920       0.69352      18.08571      22.46820      12.67834       0.71305       3.51634  
    16.44845       8.09555       2.96268       3.29856      61.08143       6.67142       5.44987       0.44548       0.68982      17.68571      16.92349       8.57714       0.69987       3.52666  
    13.39865       5.23110       2.60075       2.92534      38.64771       4.86515       7.53782       0.35603       0.67951      16.31429      19.02657       6.97679       0.69522       3.79603  
wgn10141                       41.42300       2.07800     151.00000        35  
 tmp_max_ave   tmp_min_ave    tmp_max_sd    tmp_min_sd       pcp_ave        pcp_sd      pcp_skew       wet_dry       wet_wet      pcp_days       pcp_hhr       slr_ave       dew_ave       wnd_ave  
    13.37821       3.77317       2.79312       2.86592      45.54400       4.92175       5.04953       0.36779       0.68213      16.62857      10.21196       7.99816       0.70779       3.68663  
    14.62367       4.12103       3.09753       2.72800      37.39543       4.28613       5.44720       0.34255       0.68979      14.82857      12.53147      11.35996       0.70447       3.62247  
    17.48359       6.21852       3.05876       2.58552      42.95429       5.09062       6.71074       0.32765       0.68941      15.91429      14.70278      16.20461       0.70414       3.66271  
    19.55983       8.37869       2.89133       2.17061      47.77343       4.66268       5.34125       0.36383       0.71743      16.88571      11.84221      20.50476       0.71392       3.67721  
    23.30195      12.11022       3.22207       2.43493      54.65629       5.51447       5.70651       0.36853       0.70432      17.20000      15.11210      24.24100       0.72847       3.34203  
    27.80266      16.54250       3.16538       2.22857      32.13829       4.03547       7.40506       0.34854       0.61952      14.34286      12.52912      26.53429       0.70837       3.20560  
    30.62375      19.46129       2.53086       1.85962      22.03257       3.43008       7.13917       0.29308       0.50985      11.60000       8.25708      26.34654       0.69194       3.17665  
    30.46435      19.67538       2.48740       1.76900      43.91057       4.34470       4.74872       0.35536       0.62095      15.00000      10.28489      22.72350       0.69700       3.09281  
    26.95721      16.52623       2.56056       2.32811      70.04143       7.60849       6.03358       0.38493       0.66190      15.97143      20.54625      17.75810       0.71071       3.20550  
    22.77518      12.59905       3.05990       2.84342      87.90400       8.44423       5.08977       0.42984       0.69654      18.17143      21.86127      12.67834       0.71305       3.51634  
    17.11343       7.57080       3.01210       3.30933      62.70943       6.97286       5.53051       0.44342       0.68882      17.62857      17.13285       8.57714       0.69987       3.52666  
    13.79865       4.62572       2.63077       2.94001      39.93029       4.93902       7.07155       0.35065       0.65385      15.60000      18.39612       6.97679       0.69522       3.79603  
wgn10151                       41.42800       2.01200     158.00000        35  
 tmp_max_ave   tmp_min_ave    tmp_max_sd    tmp_min_sd       pcp_ave        pcp_sd      pcp_skew       wet_dry       wet_wet      pcp_days       pcp_hhr       slr_ave       dew_ave       wnd_ave  
    13.15989       3.47827       2.80125       2.87135      45.06857       4.85002       5.00928       0.33396       0.67395      15.68571      10.23784       7.92535       0.72712       3.04728  
    14.44793       3.81822       3.10240       2.73855      36.54943       4.26507       5.66099       0.30545       0.66947      13.57143      13.12664      11.24267       0.71007       2.97620  
    17.50455       6.13413       3.07448       2.59485      43.08686       5.12028       6.86990       0.31927       0.67778      15.42857      15.44145      15.92811       0.68932       2.99614  
    19.75435       8.36020       2.91556       2.17916      49.47543       4.80790       5.41555       0.36726       0.72241      17.08571      12.58323      20.07238       0.68892       3.05747  
    23.49753      12.05908       3.24209       2.44737      56.19371       5.59781       5.67516       0.36307       0.70978      17.22857      14.91920      23.82364       0.69436       2.76977  
    27.83527      16.41139       3.17557       2.23888      32.41314       3.96169       7.14065       0.36723       0.62428      14.82857      11.87044      26.27810       0.66233       2.64782  
    30.67630      19.30718       2.52955       1.86788      21.81143       3.33501       7.07807       0.27762       0.51889      11.34286       8.37705      26.12811       0.65196       2.57393  
    30.96274      19.58121       2.49292       1.78135      44.92886       4.39049       4.45563       0.35304       0.60196      14.57143       9.56033      22.48018       0.67369       2.43124  
    27.17527      16.30223       2.57902       2.34321      70.70600       7.75966       6.17445       0.40166       0.65785      16.20000      21.89891      17.45143       0.70744       2.44457  
    22.72600      12.29784       3.07693       2.85053      87.30743       8.36039       4.98800       0.41266       0.69856      17.91429      20.60036      12.45806       0.71669       2.68908  
    16.93621       7.18743       3.02891       3.31595      63.30257       7.10042       5.50838       0.36585       0.67742      15.94286      17.57982       8.42857       0.71890       2.82367  
    13.54797       4.27100       2.63090       2.94988      40.29686       4.93770       6.69932       0.30069       0.65209      14.37143      17.42220       6.93872       0.71830       3.10183  
wgn10161                       41.43200       1.94600     195.00000        35  
 tmp_max_ave   tmp_min_ave    tmp_max_sd    tmp_min_sd       pcp_ave        pcp_sd      pcp_skew       wet_dry       wet_wet      pcp_days       pcp_hhr       slr_ave       dew_ave       wnd_ave  
    12.86989       3.10474       2.84078       2.88561      45.40343       4.87817       5.03646       0.31079       0.68216      15.37143      10.51543       7.92535       0.72712       3.04728  
    14.28692       3.43502       3.15809       2.75582      36.37971       4.31097       5.92271       0.30906       0.67360      13.74286      13.88178      11.24267       0.71007       2.97620  
    17.60307       5.64360       3.16886       2.61887      43.90257       5.22827       6.98738       0.33769       0.67031      15.68571      16.30009      15.92811       0.68932       2.99614  
    19.98615       7.78734       3.02949       2.20522      51.67771       4.97775       5.38586       0.37613       0.72442      17.31429      13.39717      20.07238       0.68892       3.05747  
    23.80553      11.63731       3.35513       2.47766      58.00029       5.70452       5.64426       0.37759       0.69818      17.22857      14.81334      23.82364       0.69436       2.76977  
    28.36561      16.07052       3.27787       2.26643      33.14914       3.96358       6.96018       0.36210       0.62669      14.77143      11.50345      26.27810       0.66233       2.64782  
    31.27939      19.05238       2.60014       1.88827      21.63143       3.26503       7.30167       0.30475       0.53935      12.34286       8.67111      26.12811       0.65196       2.57393  
    31.09029      19.24687       2.58321       1.80766      46.04543       4.50924       4.47143       0.34206       0.61719      14.62857       9.41919      22.48018       0.67369       2.43124  
    27.24062      15.96276       2.67442       2.36505      71.49057       7.89102       6.16455       0.41020       0.64107      16.00000      22.41409      17.45143       0.70744       2.44457  
    22.73245      11.93170       3.15401       2.86125      87.50400       8.39101       4.90016       0.41432       0.69391      17.82857      19.05245      12.45806       0.71669       2.68908  
    16.77036       6.85001       3.08167       3.32617      64.40257       7.24148       5.38226       0.38144       0.67257      16.14286      17.62922       8.42857       0.71890       2.82367  
    13.24712       3.85241       2.66445       2.96434      41.21229       4.99420       6.36486       0.32353       0.63116      14.48571      16.48828       6.93872       0.71830       3.10183  
wgn10173                       41.43700       1.87900     243.00000        35  
 tmp_max_ave   tmp_min_ave    tmp_max_sd    tmp_min_sd       pcp_ave        pcp_sd      pcp_skew       wet_dry       wet_wet      pcp_days       pcp_hhr       slr_ave       dew_ave       wnd_ave  
    12.59090       2.36538       2.88726       2.89686      45.72543       4.91923       5.10923       0.32319       0.69410      15.97143      10.71538       7.92535       0.72712       3.04728  
    14.03304       2.80944       3.22301       2.77530      36.21629       4.34320       6.17514       0.34369       0.67194      14.45714      14.46283      11.24267       0.71007       2.97620  
    17.45022       5.07317       3.27585       2.64854      44.59286       5.32644       7.05287       0.34535       0.67384      15.94286      16.94231      15.92811       0.68932       2.99614  
    19.77200       7.25649       3.15929       2.23540      53.38629       5.09710       5.29857       0.36996       0.72682      17.25714      14.02763      20.07238       0.68892       3.05747  
    23.72751      11.19349       3.48168       2.51299      59.39800       5.78451       5.64867       0.38509       0.69103      17.20000      15.43204      23.82364       0.69436       2.76977  
    28.45726      15.64594       3.39744       2.30180      34.09457       4.05616       7.06216       0.37192       0.62524      14.94286      11.80692      26.27810       0.66233       2.64782  
    31.44851      18.75078       2.68297       1.91327      21.32629       3.19573       7.65522       0.33438       0.52455      12.80000       8.90871      26.12811       0.65196       2.57393  
    31.16818      18.86408       2.68687       1.84004      46.84657       4.65541       4.60412       0.31661       0.63905      14.48571      10.07317      22.48018       0.67369       2.43124  
    27.25462      15.53744       2.78284       2.38749      71.82686       7.93409       6.00487       0.40119       0.62684      15.54286      21.94360      17.45143       0.70744       2.44457  
    22.49305      11.38259       3.23973       2.87155      87.45714       8.44947       4.84219       0.40928       0.68249      17.45714      18.67606      12.45806       0.71669       2.68908  
    16.45816       6.20713       3.13851       3.33441      65.05086       7.31254       5.19750       0.38509       0.67196      16.20000      16.83174       8.42857       0.71890       2.82367  
    12.90841       3.00858       2.70550       2.97748      41.86114       5.03250       6.13281       0.32918       0.64627      14.94286      15.44145       6.93872       0.71830       3.10183  
wgn10240                       41.45900       2.28400      57.00000        35  
 tmp_max_ave   tmp_min_ave    tmp_max_sd    tmp_min_sd       pcp_ave        pcp_sd      pcp_skew       wet_dry       wet_wet      pcp_days       pcp_hhr       slr_ave       dew_ave       wnd_ave  
    12.26135       6.58896       2.67924       2.82889      45.50371       5.08388       5.60748       0.28419       0.69349      14.91429      11.84456       7.99816       0.70779       3.68663  
    13.05411       6.92642       2.93041       2.68478      37.83686       4.16813       5.11032       0.30943       0.69860      14.31429      10.88006      11.35996       0.70447       3.62247  