plant.ini: written by SWAT+ editor v2.2.0 on 2023-03-22 04:25 for SWAT+ rev.60.5.4
pcom_name          plt_cnt  rot_yr_ini          plt_name     lc_status      lai_init       bm_init      phu_init      plnt_pop      yrs_init      rsd_init  
rice140_comm             1         1  
												rice140             n       0.00000       0.00000       0.00000       0.00000       0.00000   10000.00000  
rice140_rye              2         1  
												rice140             n       0.00000       0.00000       0.00000       0.00000       0.00000   10000.00000  
												rye                 y       3.00000      10.00000       1000.000     100.00000       0.00000   10000.00000  
gras_comm                1         1  
                                        gras             n       0.00000       0.00000       0.00000       0.00000       0.00000   10000.00000  
frst_tems_comm           1         1  
                                   frst_tems             y       2.00000   50000.00000       0.00000       0.00000       1.00000   10000.00000  
frse_tecf_comm           1         1  
                                   frse_tecf             y       2.00000   50000.00000       0.00000       0.00000       1.00000   10000.00000  
agrl_comm                1         1  
                                        agrl             n       0.00000       0.00000       0.00000       0.00000       0.00000   10000.00000  
wetn_comm                1         1  
                                        wetn             y       2.00000   50000.00000       0.00000       0.00000       1.00000   10000.00000  
wetw_comm                1         1  
                                        wetw             y       2.00000   50000.00000       0.00000       0.00000       1.00000   10000.00000  
urbn_warm_comm           1         1  
                                   urbn_warm             n       0.00000       0.00000       0.00000       0.00000       0.00000   10000.00000  
orcd_comm                1         1  
                                        orcd             y       2.00000   20000.00000       0.00000       0.00000       1.00000   10000.00000  
