rout_unit.ele: written by SWAT+ editor v2.2.0 on 2023-03-22 04:25 for SWAT+ rev.60.5.4
      id  name                   obj_typ    obj_id          frac               dlr  
       1  hru0001                    hru         1     1.9677E-2                 0  
       2  hru0002                    hru         2     3.5375E-3                 0  
       3  hru0003                    hru         3     2.2109E-3                 0  
       4  hru0004                    hru         4     4.4218E-4                 0  
       5  hru0005                    hru         5     2.6531E-3                 0  
       6  hru0006                    hru         6     4.4218E-4                 0  
       7  hru0007                    hru         7     6.3811E-3                 0  
       8  hru0008                    hru         8     8.4321E-3                 0  
       9  hru0009                    hru         9     1.7687E-3                 0  
      10  hru0010                    hru        10     2.2109E-4                 0  
      11  hru0011                    hru        11     4.4218E-3                 0  
      12  hru0012                    hru        12     2.6551E-1                 0  
      13  hru0013                    hru        13     1.0344E-2                 0  
      14  hru0014                    hru        14     4.4596E-2                 0  
      15  hru0015                    hru        15     1.8390E-3                 0  
      16  hru0016                    hru        16     1.7206E-2                 0  
      17  hru0017                    hru        17     1.4142E-3                 0  
      18  hru0018                    hru        18     2.9415E-2                 0  
      19  hru0019                    hru        19     1.0354E-2                 0  
      20  hru0020                    hru        20     5.7009E-2                 0  
      21  hru0021                    hru        21     2.0689E-3                 0  
      22  hru0022                    hru        22     2.6576E-1                 0  
      23  hru0023                    hru        23     1.0170E-2                 0  
      24  hru0024                    hru        24     6.7797E-4                 0  
      25  hru0025                    hru        25     2.9153E-2                 0  
      26  hru0026                    hru        26     1.0170E-2                 0  
      27  hru0027                    hru        27     1.8079E-3                 0  
      28  hru0028                    hru        28     1.8079E-2                 0  
      29  hru0029                    hru        29     2.0339E-3                 0  
      30  hru0030                    hru        30     2.8012E-2                 0  
      31  hru0031                    hru        31     1.3665E-3                 0  
      32  hru0032                    hru        32     2.2109E-3                 0  
      33  hru0033                    hru        33     1.5476E-3                 0  
      34  hru0034                    hru        34     1.8793E-2                 0  
      35  hru0035                    hru        35     3.4933E-2                 0  
      36  hru0036                    hru        36     5.9695E-3                 0  
      37  hru0037                    hru        37     4.6429E-3                 0  
      38  hru0038                    hru        38     3.3164E-3                 0  
      39  hru0039                    hru        39     1.9898E-3                 0  
      40  hru0040                    hru        40     4.4218E-4                 0  
      41  hru0041                    hru        41     3.0953E-3                 0  
      42  hru0042                    hru        42     3.0953E-3                 0  
      43  hru0043                    hru        43     1.7687E-3                 0  
      44  hru0044                    hru        44     3.3975E-2                 0  
      45  hru0045                    hru        45     1.5647E-2                 0  
      46  hru0046                    hru        46     7.3762E-3                 0  
      47  hru0047                    hru        47     8.9409E-4                 0  
      48  hru0048                    hru        48     1.3411E-3                 0  
      49  hru0049                    hru        49     1.3411E-3                 0  
      50  hru0050                    hru        50     2.2352E-4                 0  
      51  hru0051                    hru        51     2.2352E-4                 0  
      52  hru0052                    hru        52     2.1053E-1                 0  
      53  hru0053                    hru        53     4.2105E-1                 0  
      54  hru0054                    hru        54     7.0175E-2                 0  
      55  hru0055                    hru        55     3.5088E-2                 0  
      56  hru0056                    hru        56     1.9298E-1                 0  
      57  hru0057                    hru        57     7.0175E-2                 0  
      58  hru0058                    hru        58     6.5291E-1                 0  
      59  hru0059                    hru        59     2.2534E-2                 0  
      60  hru0060                    hru        60     9.0135E-3                 0  
      61  hru0061                    hru        61     2.1970E-1                 0  
      62  hru0062                    hru        62     1.1691E-2                 0  
      63  hru0063                    hru        63     4.4344E-3                 0  
      64  hru0064                    hru        64     1.6125E-3                 0  
      65  hru0065                    hru        65     2.3548E-2                 0  
      66  hru0066                    hru        66     1.9623E-3                 0  
      67  hru0067                    hru        67     1.1774E-3                 0  
      68  hru0068                    hru        68     2.3548E-3                 0  
      69  hru0069                    hru        69     2.3548E-3                 0  
      70  hru0070                    hru        70     1.1774E-3                 0  
      71  hru0071                    hru        71     3.9246E-4                 0  
      72  hru0072                    hru        72     1.5699E-3                 0  
      73  hru0073                    hru        73     5.1020E-3                 0  
      74  hru0074                    hru        74     1.7050E-2                 0  
      75  hru0075                    hru        75     2.7756E-3                 0  
      76  hru0076                    hru        76     1.2688E-2                 0  
      77  hru0077                    hru        77     3.9651E-4                 0  
      78  hru0078                    hru        78     2.7756E-3                 0  
      79  hru0079                    hru        79     2.7756E-3                 0  
      80  hru0080                    hru        80     5.2500E-1                 0  
      81  hru0081                    hru        81     2.0000E-1                 0  
      82  hru0082                    hru        82     1.2500E-1                 0  
      83  hru0083                    hru        83     5.0000E-2                 0  
      84  hru0084                    hru        84     2.5000E-2                 0  
      85  hru0085                    hru        85     2.5000E-2                 0  
      86  hru0086                    hru        86     5.0000E-2                 0  
      87  hru0087                    hru        87     4.0959E-1                 0  
      88  hru0088                    hru        88     8.5586E-3                 0  
      89  hru0089                    hru        89     3.0566E-3                 0  
      90  hru0090                    hru        90     4.3661E-1                 0  
      91  hru0091                    hru        91     1.6909E-2                 0  
      92  hru0092                    hru        92     1.8117E-3                 0  
      93  hru0093                    hru        93     4.8311E-3                 0  
      94  hru0094                    hru        94     1.0266E-2                 0  
      95  hru0095                    hru        95     6.0389E-4                 0  
      96  hru0096                    hru        96     1.7381E-3                 0  
      97  hru0097                    hru        97     1.1587E-3                 0  
      98  hru0098                    hru        98     5.2144E-3                 0  
      99  hru0099                    hru        99     1.1587E-3                 0  
     100  hru0100                    hru       100     5.7937E-3                 0  
     101  hru0101                    hru       101     1.7381E-3                 0  
     102  hru0102                    hru       102     2.3175E-3                 0  
     103  hru0103                    hru       103     1.7381E-3                 0  
     104  hru0104                    hru       104     5.7937E-4                 0  
     105  hru0105                    hru       105     4.6350E-3                 0  
     106  hru0106                    hru       106     5.7937E-4                 0  
     107  hru0107                    hru       107     5.7937E-4                 0  
     108  hru0108                    hru       108     6.4911E-3                 0  
     109  hru0109                    hru       109     1.5933E-2                 0  
     110  hru0110                    hru       110     1.1802E-3                 0  
     111  hru0111                    hru       111     1.1802E-3                 0  
     112  hru0112                    hru       112     2.3604E-3                 0  
     113  hru0113                    hru       113     2.3604E-3                 0  
     114  hru0114                    hru       114     2.3604E-3                 0  
     115  hru0115                    hru       115     1.7381E-3                 0  
     116  hru0116                    hru       116     3.3604E-2                 0  
     117  hru0117                    hru       117     8.1112E-3                 0  
     118  hru0118                    hru       118     1.1587E-3                 0  
     119  hru0119                    hru       119     1.1587E-3                 0  
     120  hru0120                    hru       120     2.3175E-3                 0  
     121  hru0121                    hru       121     5.7937E-4                 0  
     122  hru0122                    hru       122     3.2143E-1                 0  
     123  hru0123                    hru       123     7.1429E-2                 0  
     124  hru0124                    hru       124     2.3810E-2                 0  
     125  hru0125                    hru       125     1.1905E-2                 0  
     126  hru0126                    hru       126     3.5714E-2                 0  
     127  hru0127                    hru       127     1.1905E-2                 0  
     128  hru0128                    hru       128     1.1905E-2                 0  
     129  hru0129                    hru       129     5.9524E-2                 0  
     130  hru0130                    hru       130     1.1905E-2                 0  
     131  hru0131                    hru       131     3.5714E-2                 0  
     132  hru0132                    hru       132     3.5714E-2                 0  
     133  hru0133                    hru       133     1.1905E-1                 0  
     134  hru0134                    hru       134     2.3810E-2                 0  
     135  hru0135                    hru       135     3.5714E-2                 0  
     136  hru0136                    hru       136     1.0714E-1                 0  
     137  hru0137                    hru       137     1.1905E-2                 0  
     138  hru0138                    hru       138     1.1905E-2                 0  
     139  hru0139                    hru       139     1.1905E-2                 0  
     140  hru0140                    hru       140     1.1905E-2                 0  
     141  hru0141                    hru       141     2.3810E-2                 0  
     142  hru0142                    hru       142     1.1905E-2                 0  
     143  hru0143                    hru       143     8.0963E-1                 0  
     144  hru0144                    hru       144     3.3220E-2                 0  
     145  hru0145                    hru       145     1.9875E-3                 0  
     146  hru0146                    hru       146     1.0386E-1                 0  
     147  hru0147                    hru       147     7.5282E-3                 0  
     148  hru0148                    hru       148     9.7588E-4                 0  
     149  hru0149                    hru       149     2.7882E-4                 0  
     150  hru0150                    hru       150     4.7400E-3                 0  
     151  hru0151                    hru       151     8.3647E-4                 0  
     152  hru0152                    hru       152     2.7882E-4                 0  
     153  hru0153                    hru       153     1.1153E-3                 0  
     154  hru0154                    hru       154     2.7882E-3                 0  
     155  hru0155                    hru       155     2.6070E-2                 0  
     156  hru0156                    hru       156     2.5094E-3                 0  
     157  hru0157                    hru       157     8.3647E-4                 0  
     158  hru0158                    hru       158     1.3941E-4                 0  
     159  hru0159                    hru       159     1.3941E-4                 0  
     160  hru0160                    hru       160     6.9706E-4                 0  
     161  hru0161                    hru       161     2.7882E-4                 0  
     162  hru0162                    hru       162     1.6729E-3                 0  
     163  hru0163                    hru       163     4.1824E-4                 0  
     164  hru0164                    hru       164     1.5873E-2                 0  
     165  hru0165                    hru       165     2.3810E-2                 0  
     166  hru0166                    hru       166     1.3492E-1                 0  
     167  hru0167                    hru       167     3.1746E-2                 0  
     168  hru0168                    hru       168     2.3810E-2                 0  
     169  hru0169                    hru       169     7.9365E-3                 0  
     170  hru0170                    hru       170     7.9365E-2                 0  
     171  hru0171                    hru       171     1.5873E-2                 0  
     172  hru0172                    hru       172     7.9365E-3                 0  
     173  hru0173                    hru       173     2.3810E-2                 0  
     174  hru0174                    hru       174     3.1746E-2                 0  
     175  hru0175                    hru       175     2.3810E-2                 0  
     176  hru0176                    hru       176     7.9365E-3                 0  
     177  hru0177                    hru       177     1.2698E-1                 0  
     178  hru0178                    hru       178     2.3810E-2                 0  
     179  hru0179                    hru       179     2.3810E-2                 0  
     180  hru0180                    hru       180     2.3810E-2                 0  
     181  hru0181                    hru       181     7.1429E-2                 0  
     182  hru0182                    hru       182     2.3810E-2                 0  
     183  hru0183                    hru       183     1.5873E-2                 0  
     184  hru0184                    hru       184     7.9365E-3                 0  
     185  hru0185                    hru       185     7.9365E-3                 0  
     186  hru0186                    hru       186     7.9365E-3                 0  
     187  hru0187                    hru       187     2.3810E-2                 0  
     188  hru0188                    hru       188     2.3810E-2                 0  
     189  hru0189                    hru       189     7.9365E-3                 0  
     190  hru0190                    hru       190     1.5873E-2                 0  
     191  hru0191                    hru       191     1.5873E-2                 0  
     192  hru0192                    hru       192     7.9365E-3                 0  
     193  hru0193                    hru       193     1.5873E-2                 0  
     194  hru0194                    hru       194     1.5873E-2                 0  
     195  hru0195                    hru       195     1.5873E-2                 0  
     196  hru0196                    hru       196     1.5873E-2                 0  
     197  hru0197                    hru       197     7.9365E-3                 0  
     198  hru0198                    hru       198     7.9365E-3                 0  
     199  hru0199                    hru       199     7.9365E-3                 0  
     200  hru0200                    hru       200     7.9365E-3                 0  
     201  hru0201                    hru       201     3.1746E-2                 0  
     202  hru0202                    hru       202     1.5873E-2                 0  
     203  hru0203                    hru       203     4.3857E-1                 0  
     204  hru0204                    hru       204     1.6736E-2                 0  
     205  hru0205                    hru       205     2.4611E-3                 0  
     206  hru0206                    hru       206     2.5596E-2                 0  
     207  hru0207                    hru       207     7.3834E-3                 0  
     208  hru0208                    hru       208     1.2765E-2                 0  
     209  hru0209                    hru       209     4.9095E-4                 0  
     210  hru0210                    hru       210     7.9097E-3                 0  
     211  hru0211                    hru       211     1.3446E-1                 0  
     212  hru0212                    hru       212     7.3642E-3                 0  
     213  hru0213                    hru       213     3.9276E-3                 0  
     214  hru0214                    hru       214     8.3461E-3                 0  
     215  hru0215                    hru       215     7.9174E-3                 0  
     216  hru0216                    hru       216     2.4742E-2                 0  
     217  hru0217                    hru       217     1.4845E-3                 0  
     218  hru0218                    hru       218     5.9380E-3                 0  
     219  hru0219                    hru       219     1.7319E-2                 0  
     220  hru0220                    hru       220     9.8967E-4                 0  
     221  hru0221                    hru       221     2.1773E-2                 0  
     222  hru0222                    hru       222     2.3752E-2                 0  
     223  hru0223                    hru       223     1.9793E-3                 0  
     224  hru0224                    hru       224     1.9793E-3                 0  
     225  hru0225                    hru       225     5.4432E-3                 0  
     226  hru0226                    hru       226     2.9690E-3                 0  
     227  hru0227                    hru       227     4.4535E-3                 0  
     228  hru0228                    hru       228     2.9211E-3                 0  
     229  hru0229                    hru       229     6.3291E-3                 0  
     230  hru0230                    hru       230     9.7371E-4                 0  
     231  hru0231                    hru       231     1.8987E-2                 0  
     232  hru0232                    hru       232     2.4343E-3                 0  
     233  hru0233                    hru       233     5.8423E-3                 0  
     234  hru0234                    hru       234     1.0043E-3                 0  
     235  hru0235                    hru       235     4.0172E-3                 0  
     236  hru0236                    hru       236     3.0129E-3                 0  
     237  hru0237                    hru       237     1.9082E-2                 0  
     238  hru0238                    hru       238     6.6285E-2                 0  
     239  hru0239                    hru       239     1.3056E-2                 0  
     240  hru0240                    hru       240     2.5108E-3                 0  
     241  hru0241                    hru       241     1.5065E-3                 0  
     242  hru0242                    hru       242     5.0216E-3                 0  
     243  hru0243                    hru       243     3.5151E-3                 0  
     244  hru0244                    hru       244     4.6008E-2                 0  
     245  hru0245                    hru       245     1.0735E-2                 0  
     246  hru0246                    hru       246     3.3613E-2                 0  
     247  hru0247                    hru       247     2.5210E-2                 0  
     248  hru0248                    hru       248     3.3613E-2                 0  
     249  hru0249                    hru       249     8.4034E-3                 0  
     250  hru0250                    hru       250     8.4034E-3                 0  
     251  hru0251                    hru       251     9.2437E-2                 0  
     252  hru0252                    hru       252     8.4034E-3                 0  
     253  hru0253                    hru       253     2.1849E-1                 0  
     254  hru0254                    hru       254     1.6807E-2                 0  
     255  hru0255                    hru       255     8.4034E-3                 0  
     256  hru0256                    hru       256     1.6807E-2                 0  
     257  hru0257                    hru       257     5.0420E-2                 0  
     258  hru0258                    hru       258     2.5210E-2                 0  
     259  hru0259                    hru       259     8.4034E-3                 0  
     260  hru0260                    hru       260     8.4034E-3                 0  
     261  hru0261                    hru       261     2.5210E-2                 0  
     262  hru0262                    hru       262     8.4034E-3                 0  
     263  hru0263                    hru       263     7.5630E-2                 0  
     264  hru0264                    hru       264     1.5126E-1                 0  
     265  hru0265                    hru       265     2.5210E-2                 0  
     266  hru0266                    hru       266     1.6807E-2                 0  
     267  hru0267                    hru       267     1.6807E-2                 0  
     268  hru0268                    hru       268     1.6807E-2                 0  
     269  hru0269                    hru       269     8.4034E-3                 0  
     270  hru0270                    hru       270     8.4034E-3                 0  
     271  hru0271                    hru       271     8.4034E-3                 0  
     272  hru0272                    hru       272     8.4034E-3                 0  
     273  hru0273                    hru       273     1.6807E-2                 0  
     274  hru0274                    hru       274     1.6807E-2                 0  
     275  hru0275                    hru       275     3.3613E-2                 0  
     276  hru0276                    hru       276     1.0024E-3                 0  
     277  hru0277                    hru       277     2.6062E-3                 0  
     278  hru0278                    hru       278     9.0216E-4                 0  
     279  hru0279                    hru       279     3.0072E-4                 0  
     280  hru0280                    hru       280     6.8163E-3                 0  
     281  hru0281                    hru       281     1.4034E-3                 0  
     282  hru0282                    hru       282     3.8797E-3                 0  
     283  hru0283                    hru       283     1.6335E-3                 0  
     284  hru0284                    hru       284     1.5036E-3                 0  
     285  hru0285                    hru       285     3.9094E-3                 0  
     286  hru0286                    hru       286     1.0024E-3                 0  
     287  hru0287                    hru       287     2.4058E-3                 0  
     288  hru0288                    hru       288     1.0024E-4                 0  
     289  hru0289                    hru       289     7.9190E-3                 0  
     290  hru0290                    hru       290     1.7642E-2                 0  
     291  hru0291                    hru       291     5.6135E-3                 0  
     292  hru0292                    hru       292     7.7185E-3                 0  
     293  hru0293                    hru       293     3.8091E-3                 0  
     294  hru0294                    hru       294     9.6231E-3                 0  
     295  hru0295                    hru       295     1.0225E-2                 0  
     296  hru0296                    hru       296     1.5036E-3                 0  
     297  hru0297                    hru       297     1.8043E-3                 0  
     298  hru0298                    hru       298     6.0144E-4                 0  
     299  hru0299                    hru       299     5.0120E-4                 0  
     300  hru0300                    hru       300     3.4082E-3                 0  
     301  hru0301                    hru       301     3.4082E-3                 0  
     302  hru0302                    hru       302     1.7577E-1                 0  
     303  hru0303                    hru       303     4.4454E-3                 0  
     304  hru0304                    hru       304     1.6468E-2                 0  
     305  hru0305                    hru       305     4.7895E-3                 0  
     306  hru0306                    hru       306     3.9742E-3                 0  
     307  hru0307                    hru       307     8.5534E-2                 0  
     308  hru0308                    hru       308     3.5972E-3                 0  
     309  hru0309                    hru       309     4.9463E-2                 0  
     310  hru0310                    hru       310     3.4182E-3                 0  
     311  hru0311                    hru       311     1.4938E-1                 0  
     312  hru0312                    hru       312     8.0809E-3                 0  
     313  hru0313                    hru       313     1.8182E-3                 0  
     314  hru0314                    hru       314     9.8580E-2                 0  
     315  hru0315                    hru       315     3.7763E-3                 0  
     316  hru0316                    hru       316     7.4243E-3                 0  
     317  hru0317                    hru       317     5.0485E-3                 0  
     318  hru0318                    hru       318     1.2869E-3                 0  
     319  hru0319                    hru       319     8.1229E-2                 0  
     320  hru0320                    hru       320     5.2889E-3                 0  
     321  hru0321                    hru       321     6.4414E-3                 0  
     322  hru0322                    hru       322     2.0449E-4                 0  
     323  hru0323                    hru       323     1.7688E-2                 0  
     324  hru0324                    hru       324     2.6584E-3                 0  
     325  hru0325                    hru       325     1.3394E-2                 0  
     326  hru0326                    hru       326     1.6359E-3                 0  
     327  hru0327                    hru       327     1.1247E-3                 0  
     328  hru0328                    hru       328     4.0898E-4                 0  
     329  hru0329                    hru       329     1.4314E-3                 0  
     330  hru0330                    hru       330     7.1571E-4                 0  
     331  hru0331                    hru       331     3.0673E-3                 0  
     332  hru0332                    hru       332     2.8629E-3                 0  
     333  hru0333                    hru       333     2.7299E-2                 0  
     334  hru0334                    hru       334     3.0776E-2                 0  
     335  hru0335                    hru       335     2.3516E-3                 0  
     336  hru0336                    hru       336     1.0224E-3                 0  
     337  hru0337                    hru       337     2.0449E-3                 0  
     338  hru0338                    hru       338     1.3292E-3                 0  
     339  hru0339                    hru       339     4.9078E-3                 0  
     340  hru0340                    hru       340     6.1347E-3                 0  
     341  hru0341                    hru       341     7.1571E-4                 0  
     342  hru0342                    hru       342     4.2627E-4                 0  
     343  hru0343                    hru       343     2.5576E-3                 0  
     344  hru0344                    hru       344     4.2627E-4                 0  
     345  hru0345                    hru       345     2.7707E-3                 0  
     346  hru0346                    hru       346     1.8862E-2                 0  
     347  hru0347                    hru       347     7.4597E-4                 0  
     348  hru0348                    hru       348     2.1313E-4                 0  
     349  hru0349                    hru       349     3.3036E-3                 0  
     350  hru0350                    hru       350     1.2788E-3                 0  