rout_unit.def: written by SWAT+ editor v2.2.0 on 2023-03-22 04:25 for SWAT+ rev.60.5.4
      id              name  elem_tot  elements  
       1            rtu011         2      5012     -5064  
       2            rtu012         2      4900     -5011  
       3            rtu031         2      1343     -1422  
       4            rtu032         2      1225     -1342  
       5            rtu041         2      1105     -1124  
       6            rtu042         2       985     -1104  
       7            rtu051         2       945      -984  
       8            rtu052         2       874      -944  
       9            rtu061         2       837      -873  
      10            rtu062         2       742      -836  
      11            rtu081         2       516      -561  
      12            rtu082         2       427      -515  
      13            rtu091         2      4389     -4451  
      14            rtu092         2      4245     -4388  
      15            rtu121         2       358      -426  
      16            rtu122         2       276      -357  
      17            rtu131         2      3928     -3950  
      18            rtu132         2      3845     -3927  
      19            rtu151         2      3820     -3844  
      20            rtu152         2      3717     -3819  
      21            rtu161         2      4031     -4047  
      22            rtu162         2      3951     -4030  
      23            rtu191         2      3194     -3207  
      24            rtu192         2      3208     -3266  
      25            rtu201         2      1615     -1641  
      26            rtu202         2      1560     -1614  
      27            rtu231         1      1559  
      28            rtu232         2      1524     -1558  
      29            rtu241         2      2409     -2430  
      30            rtu242         2      2321     -2408  
      31            rtu251         2      2495     -2540  
      32            rtu252         2      2431     -2494  
      33            rtu261         2      2593     -2602  
      34            rtu262         2      2541     -2592  
      35            rtu271         2       246      -275  
      36            rtu272         2       203      -245  
      37            rtu291         2      4687     -4699  
      38            rtu292         2      4626     -4686  
      39            rtu301         2      2210     -2227  
      40            rtu302         2      2158     -2209  
      41            rtu311         2       122      -142  
      42            rtu312         2        87      -121  
      43            rtu321         2      3481     -3504  
      44            rtu322         2      3417     -3480  
      45            rtu331         2      2313     -2320  
      46            rtu332         2      2228     -2312  
      47            rtu351         2      2136     -2157  
      48            rtu352         2      2068     -2135  
      49            rtu361         2      1476     -1507  
      50            rtu362         2      1423     -1475  
      51            rtu371         2      3071     -3079  
      52            rtu372         2      2968     -3070  
      53            rtu381         2      2053     -2067  
      54            rtu382         2      1980     -2052  
      55            rtu401         2      3592     -3607  
      56            rtu402         2      3505     -3591  
      57            rtu411         2      2895     -2904  
      58            rtu412         2      2799     -2894  
      59            rtu421         2      1211     -1224  
      60            rtu422         2      1125     -1210  
      61            rtu431         2      1832     -1848  
      62            rtu432         2      1768     -1831  
      63            rtu441         2      3180     -3193  
      64            rtu442         2      3080     -3179  
      65            rtu451         2      3394     -3416  
      66            rtu452         2      3315     -3393  
      67            rtu461         2      4896     -4899  
      68            rtu462         2      4779     -4895  
      69            rtu471         2      4237     -4244  
      70            rtu472         2      4138     -4236  
      71            rtu481         2      4128     -4137  
      72            rtu482         2      4048     -4127  
      73            rtu511         2      4773     -4778  
      74            rtu512         2      4700     -4772  
      75            rtu521         2      4620     -4625  
      76            rtu522         2      4569     -4619  
      77            rtu551         2      4549     -4568  
      78            rtu552         2      4452     -4548  
      79            rtu571         2      3644     -3668  
      80            rtu572         2      3669     -3716  
      81            rtu601         2      3633     -3643  
      82            rtu602         2      3608     -3632  
      83            rtu611         2      2964     -2967  
      84            rtu612         2      2905     -2963  
      85            rtu631         2      2651     -2653  
      86            rtu632         2      2603     -2650  
      87            rtu641         2      3301     -3314  
      88            rtu642         2      3267     -3300  
      89            rtu651         2       733      -741  
      90            rtu652         2       641      -732  
      91            rtu681         2      1960     -1979  
      92            rtu682         2      1900     -1959  
      93            rtu711         2      2714     -2718  
      94            rtu712         2      2654     -2713  
      95            rtu721         2       624      -640  
      96            rtu722         2       562      -623  
      97            rtu731         2      2778     -2798  
      98            rtu732         2      2719     -2777  
      99            rtu761         2      1891     -1899  
     100            rtu762         2      1849     -1890  
     101            rtu801         2      1747     -1767  
     102            rtu802         2      1725     -1746  
     103            rtu821         2      1684     -1693  
     104            rtu822         2      1694     -1724  
     105            rtu831         2      1656     -1683  
     106            rtu832         2      1642     -1655  
     107            rtu861         2      1521     -1523  
     108            rtu862         2      1508     -1520  
     109            rtu871         2       164      -202  
     110            rtu872         2       143      -163  
     111            rtu881         2        80       -86  
     112            rtu882         2        58       -79  
     113            rtu901         2        52       -57  
     114            rtu902         2         1       -51  
