topography.hyd: written by SWAT+ editor v2.2.0 on 2023-03-22 04:25 for SWAT+ rev.60.5.4
name                       slp       slp_len       lat_len      dist_cha         depos  
topohru0001            0.33078      10.00000      10.00000     121.00000       0.00000  
topohru0002            0.11377      10.00000      10.00000     121.00000       0.00000  
topohru0003            0.19159      10.00000      10.00000     121.00000       0.00000  
topohru0004            0.12522      10.00000      10.00000     121.00000       0.00000  
topohru0005            0.30309      10.00000      10.00000     121.00000       0.00000  
topohru0006            0.13631      10.00000      10.00000     121.00000       0.00000  
topohru0007            0.10489      10.00000      10.00000     121.00000       0.00000  
topohru0008            0.22642      10.00000      10.00000     121.00000       0.00000  
topohru0009            0.29952      10.00000      10.00000     121.00000       0.00000  
topohru0010            0.11448      10.00000      10.00000     121.00000       0.00000  
topohru0011            0.39139      10.00000      10.00000     121.00000       0.00000  
topohru0012            0.41680      10.00000      10.00000     121.00000       0.00000  
topohru0013            0.11441      10.00000      10.00000     121.00000       0.00000  
topohru0014            0.38041      10.00000      10.00000     121.00000       0.00000  
topohru0015            0.11354      10.00000      10.00000     121.00000       0.00000  
topohru0016            0.37156      10.00000      10.00000     121.00000       0.00000  
topohru0017            0.09947      10.00000      10.00000     121.00000       0.00000  
topohru0018            0.28491      10.00000      10.00000     121.00000       0.00000  
topohru0019            0.10569      10.00000      10.00000     121.00000       0.00000  
topohru0020            0.40046      10.00000      10.00000     121.00000       0.00000  
topohru0021            0.11559      10.00000      10.00000     121.00000       0.00000  
topohru0022            0.42879      10.00000      10.00000     121.00000       0.00000  
topohru0023            0.30143      10.00000      10.00000     121.00000       0.00000  
topohru0024            0.12010      10.00000      10.00000     121.00000       0.00000  
topohru0025            0.29197      10.00000      10.00000     121.00000       0.00000  
topohru0026            0.10422      10.00000      10.00000     121.00000       0.00000  
topohru0027            0.02853      90.00000      90.00000     121.00000       0.00000  
topohru0028            0.32375      10.00000      10.00000     121.00000       0.00000  
topohru0029            0.12080      10.00000      10.00000     121.00000       0.00000  
topohru0030            0.35648      10.00000      10.00000     121.00000       0.00000  
topohru0031            0.09774      10.00000      10.00000     121.00000       0.00000  
topohru0032            0.19909      10.00000      10.00000     121.00000       0.00000  
topohru0033            0.11879      10.00000      10.00000     121.00000       0.00000  
topohru0034            0.20727      10.00000      10.00000     121.00000       0.00000  
topohru0035            0.10022      10.00000      10.00000     121.00000       0.00000  
topohru0036            0.01752      90.00000      90.00000     121.00000       0.00000  
topohru0037            0.20999      10.00000      10.00000     121.00000       0.00000  
topohru0038            0.11026      10.00000      10.00000     121.00000       0.00000  
topohru0039            0.07946      30.00000      30.00000     121.00000       0.00000  
topohru0040            0.19294      10.00000      10.00000     121.00000       0.00000  
topohru0041            0.18743      10.00000      10.00000     121.00000       0.00000  
topohru0042            0.11772      10.00000      10.00000     121.00000       0.00000  
topohru0043            0.21534      10.00000      10.00000     121.00000       0.00000  
topohru0044            0.09988      10.00000      10.00000     121.00000       0.00000  
topohru0045            0.22969      10.00000      10.00000     121.00000       0.00000  
topohru0046            0.01442      90.00000      90.00000     121.00000       0.00000  
topohru0047            0.11155      10.00000      10.00000     121.00000       0.00000  
topohru0048            0.23948      10.00000      10.00000     121.00000       0.00000  
topohru0049            0.26096      10.00000      10.00000     121.00000       0.00000  
topohru0050            0.03289      60.00000      60.00000     121.00000       0.00000  
topohru0051            0.13807      10.00000      10.00000     121.00000       0.00000  
topohru0052            0.06408      30.00000      30.00000     121.00000       0.00000  
topohru0053            0.00743     121.00000     121.00000     121.00000       0.00000  
topohru0054            0.01391      90.00000      90.00000     121.00000       0.00000  
topohru0055            0.09207      10.00000      10.00000     121.00000       0.00000  
topohru0056            0.00889     121.00000     121.00000     121.00000       0.00000  
topohru0057            0.07078      30.00000      30.00000     121.00000       0.00000  
topohru0058            0.65947      10.00000      10.00000     121.00000       0.00000  
topohru0059            0.34215      10.00000      10.00000     121.00000       0.00000  
topohru0060            0.10750      10.00000      10.00000     121.00000       0.00000  
topohru0061            0.60370      10.00000      10.00000     121.00000       0.00000  
topohru0062            0.26344      10.00000      10.00000     121.00000       0.00000  
topohru0063            0.08457      10.00000      10.00000     121.00000       0.00000  
topohru0064            0.01422      90.00000      90.00000     121.00000       0.00000  
topohru0065            0.46387      10.00000      10.00000     121.00000       0.00000  
topohru0066            0.10354      10.00000      10.00000     121.00000       0.00000  
topohru0067            0.01238      90.00000      90.00000     121.00000       0.00000  
topohru0068            0.29855      10.00000      10.00000     121.00000       0.00000  
topohru0069            0.09934      10.00000      10.00000     121.00000       0.00000  
topohru0070            0.01103      90.00000      90.00000     121.00000       0.00000  
topohru0071            0.00000     121.00000     121.00000     121.00000       0.00000  
topohru0072            0.09056      10.00000      10.00000     121.00000       0.00000  
topohru0073            0.43107      10.00000      10.00000     121.00000       0.00000  
topohru0074            0.07977      30.00000      30.00000     121.00000       0.00000  
topohru0075            0.16907      10.00000      10.00000     121.00000       0.00000  
topohru0076            0.01511      90.00000      90.00000     121.00000       0.00000  
topohru0077            0.27819      10.00000      10.00000     121.00000       0.00000  
topohru0078            0.02186      90.00000      90.00000     121.00000       0.00000  
topohru0079            0.09605      10.00000      10.00000     121.00000       0.00000  
topohru0080            0.00610     121.00000     121.00000     121.00000       0.00000  
topohru0081            0.06106      30.00000      30.00000     121.00000       0.00000  
topohru0082            0.00819     121.00000     121.00000     121.00000       0.00000  
topohru0083            0.07248      30.00000      30.00000     121.00000       0.00000  
topohru0084            0.01990      90.00000      90.00000     121.00000       0.00000  
topohru0085            0.00000     121.00000     121.00000     121.00000       0.00000  
topohru0086            0.00000     121.00000     121.00000     121.00000       0.00000  
topohru0087            0.51803      10.00000      10.00000     121.00000       0.00000  
topohru0088            0.37584      10.00000      10.00000     121.00000       0.00000  
topohru0089            0.08753      10.00000      10.00000     121.00000       0.00000  
topohru0090            0.53155      10.00000      10.00000     121.00000       0.00000  
topohru0091            0.35122      10.00000      10.00000     121.00000       0.00000  
topohru0092            0.02191      90.00000      90.00000     121.00000       0.00000  
topohru0093            0.08635      10.00000      10.00000     121.00000       0.00000  
topohru0094            0.30754      10.00000      10.00000     121.00000       0.00000  
topohru0095            0.08539      10.00000      10.00000     121.00000       0.00000  
topohru0096            0.09654      10.00000      10.00000     121.00000       0.00000  
topohru0097            0.02899      90.00000      90.00000     121.00000       0.00000  
topohru0098            0.27391      10.00000      10.00000     121.00000       0.00000  
topohru0099            0.01976      90.00000      90.00000     121.00000       0.00000  
topohru0100            0.09590      10.00000      10.00000     121.00000       0.00000  
topohru0101            0.18560      10.00000      10.00000     121.00000       0.00000  
topohru0102            0.26728      10.00000      10.00000     121.00000       0.00000  
topohru0103            0.02562      90.00000      90.00000     121.00000       0.00000  
topohru0104            0.08170      10.00000      10.00000     121.00000       0.00000  
topohru0105            0.19907      10.00000      10.00000     121.00000       0.00000  
topohru0106            0.14405      10.00000      10.00000     121.00000       0.00000  
topohru0107            0.10600      10.00000      10.00000     121.00000       0.00000  
topohru0108            0.01480      90.00000      90.00000     121.00000       0.00000  
topohru0109            0.07986      30.00000      30.00000     121.00000       0.00000  
topohru0110            0.15991      10.00000      10.00000     121.00000       0.00000  
topohru0111            0.09281      10.00000      10.00000     121.00000       0.00000  
topohru0112            0.11860      10.00000      10.00000     121.00000       0.00000  
topohru0113            0.08712      10.00000      10.00000     121.00000       0.00000  
topohru0114            0.40146      10.00000      10.00000     121.00000       0.00000  
topohru0115            0.08120      10.00000      10.00000     121.00000       0.00000  
topohru0116            0.00165     121.00000     121.00000     121.00000       0.00000  
topohru0117            0.00366     121.00000     121.00000     121.00000       0.00000  
topohru0118            0.16934      10.00000      10.00000     121.00000       0.00000  
topohru0119            0.12025      10.00000      10.00000     121.00000       0.00000  
topohru0120            0.00838     121.00000     121.00000     121.00000       0.00000  
topohru0121            0.05697      30.00000      30.00000     121.00000       0.00000  
topohru0122            0.00000     121.00000     121.00000     121.00000       0.00000  
topohru0123            0.00017     121.00000     121.00000     121.00000       0.00000  
topohru0124            0.00023     121.00000     121.00000     121.00000       0.00000  
topohru0125            0.01398      90.00000      90.00000     121.00000       0.00000  
topohru0126            0.28550      10.00000      10.00000     121.00000       0.00000  
topohru0127            0.00572     121.00000     121.00000     121.00000       0.00000  
topohru0128            0.10195      10.00000      10.00000     121.00000       0.00000  
topohru0129            0.08828      10.00000      10.00000     121.00000       0.00000  
topohru0130            0.00000     121.00000     121.00000     121.00000       0.00000  
topohru0131            0.21060      10.00000      10.00000     121.00000       0.00000  
topohru0132            0.06472      30.00000      30.00000     121.00000       0.00000  
topohru0133            0.00410     121.00000     121.00000     121.00000       0.00000  
topohru0134            0.02530      90.00000      90.00000     121.00000       0.00000  
topohru0135            0.04721      60.00000      60.00000     121.00000       0.00000  
topohru0136            0.01688      90.00000      90.00000     121.00000       0.00000  
topohru0137            0.17943      10.00000      10.00000     121.00000       0.00000  
topohru0138            0.06602      30.00000      30.00000     121.00000       0.00000  
topohru0139            0.09818      10.00000      10.00000     121.00000       0.00000  
topohru0140            0.00251     121.00000     121.00000     121.00000       0.00000  
topohru0141            0.05423      30.00000      30.00000     121.00000       0.00000  
topohru0142            0.08471      10.00000      10.00000     121.00000       0.00000  
topohru0143            0.64146      10.00000      10.00000     121.00000       0.00000  
topohru0144            0.45381      10.00000      10.00000     121.00000       0.00000  
topohru0145            0.11758      10.00000      10.00000     121.00000       0.00000  
topohru0146            0.61193      10.00000      10.00000     121.00000       0.00000  
topohru0147            0.43399      10.00000      10.00000     121.00000       0.00000  
topohru0148            0.11011      10.00000      10.00000     121.00000       0.00000  
topohru0149            0.01684      90.00000      90.00000     121.00000       0.00000  
topohru0150            0.38038      10.00000      10.00000     121.00000       0.00000  
topohru0151            0.10951      10.00000      10.00000     121.00000       0.00000  
topohru0152            0.02371      90.00000      90.00000     121.00000       0.00000  
topohru0153            0.08504      10.00000      10.00000     121.00000       0.00000  
topohru0154            0.42312      10.00000      10.00000     121.00000       0.00000  
topohru0155            0.49782      10.00000      10.00000     121.00000       0.00000  
topohru0156            0.10405      10.00000      10.00000     121.00000       0.00000  
topohru0157            0.10136      10.00000      10.00000     121.00000       0.00000  
topohru0158            0.19501      10.00000      10.00000     121.00000       0.00000  
topohru0159            0.20214      10.00000      10.00000     121.00000       0.00000  
topohru0160            0.08784      10.00000      10.00000     121.00000       0.00000  
topohru0161            0.02150      90.00000      90.00000     121.00000       0.00000  
topohru0162            0.27922      10.00000      10.00000     121.00000       0.00000  
topohru0163            0.09549      10.00000      10.00000     121.00000       0.00000  
topohru0164            0.00000     121.00000     121.00000     121.00000       0.00000  
topohru0165            0.01338      90.00000      90.00000     121.00000       0.00000  
topohru0166            0.00872     121.00000     121.00000     121.00000       0.00000  
topohru0167            0.08936      10.00000      10.00000     121.00000       0.00000  
topohru0168            0.00734     121.00000     121.00000     121.00000       0.00000  
topohru0169            0.08981      10.00000      10.00000     121.00000       0.00000  
topohru0170            0.00577     121.00000     121.00000     121.00000       0.00000  
topohru0171            0.06420      30.00000      30.00000     121.00000       0.00000  
topohru0172            0.00423     121.00000     121.00000     121.00000       0.00000  
topohru0173            0.02297      90.00000      90.00000     121.00000       0.00000  
topohru0174            0.07757      30.00000      30.00000     121.00000       0.00000  
topohru0175            0.01722      90.00000      90.00000     121.00000       0.00000  
topohru0176            0.05767      30.00000      30.00000     121.00000       0.00000  
topohru0177            0.09950      10.00000      10.00000     121.00000       0.00000  
topohru0178            0.00495     121.00000     121.00000     121.00000       0.00000  
topohru0179            0.21003      10.00000      10.00000     121.00000       0.00000  
topohru0180            0.08126      10.00000      10.00000     121.00000       0.00000  
topohru0181            0.01234      90.00000      90.00000     121.00000       0.00000  
topohru0182            0.02452      90.00000      90.00000     121.00000       0.00000  
topohru0183            0.06021      30.00000      30.00000     121.00000       0.00000  
topohru0184            0.05889      30.00000      30.00000     121.00000       0.00000  
topohru0185            0.01250      90.00000      90.00000     121.00000       0.00000  
topohru0186            0.10249      10.00000      10.00000     121.00000       0.00000  
topohru0187            0.00678     121.00000     121.00000     121.00000       0.00000  
topohru0188            0.10032      10.00000      10.00000     121.00000       0.00000  
topohru0189            0.17037      10.00000      10.00000     121.00000       0.00000  
topohru0190            0.10253      10.00000      10.00000     121.00000       0.00000  
topohru0191            0.02457      90.00000      90.00000     121.00000       0.00000  
topohru0192            0.00456     121.00000     121.00000     121.00000       0.00000  
topohru0193            0.01174      90.00000      90.00000     121.00000       0.00000  
topohru0194            0.10609      10.00000      10.00000     121.00000       0.00000  
topohru0195            0.01708      90.00000      90.00000     121.00000       0.00000  
topohru0196            0.10604      10.00000      10.00000     121.00000       0.00000  
topohru0197            0.05225      30.00000      30.00000     121.00000       0.00000  
topohru0198            0.01983      90.00000      90.00000     121.00000       0.00000  
topohru0199            0.03237      60.00000      60.00000     121.00000       0.00000  
topohru0200            0.10065      10.00000      10.00000     121.00000       0.00000  
topohru0201            0.01147      90.00000      90.00000     121.00000       0.00000  
topohru0202            0.06034      30.00000      30.00000     121.00000       0.00000  
topohru0203            0.42310      10.00000      10.00000     121.00000       0.00000  
topohru0204            0.32563      10.00000      10.00000     121.00000       0.00000  
topohru0205            0.12820      10.00000      10.00000     121.00000       0.00000  
topohru0206            0.29778      10.00000      10.00000     121.00000       0.00000  
topohru0207            0.10929      10.00000      10.00000     121.00000       0.00000  
topohru0208            0.27672      10.00000      10.00000     121.00000       0.00000  
topohru0209            0.09606      10.00000      10.00000     121.00000       0.00000  
topohru0210            0.10695      10.00000      10.00000     121.00000       0.00000  
topohru0211            0.33893      10.00000      10.00000     121.00000       0.00000  
topohru0212            0.26471      10.00000      10.00000     121.00000       0.00000  
topohru0213            0.11946      10.00000      10.00000     121.00000       0.00000  
topohru0214            0.29979      10.00000      10.00000     121.00000       0.00000  
topohru0215            0.11196      10.00000      10.00000     121.00000       0.00000  
topohru0216            0.22518      10.00000      10.00000     121.00000       0.00000  
topohru0217            0.02069      90.00000      90.00000     121.00000       0.00000  
topohru0218            0.11331      10.00000      10.00000     121.00000       0.00000  
topohru0219            0.22863      10.00000      10.00000     121.00000       0.00000  
topohru0220            0.01514      90.00000      90.00000     121.00000       0.00000  
topohru0221            0.21065      10.00000      10.00000     121.00000       0.00000  
topohru0222            0.10069      10.00000      10.00000     121.00000       0.00000  
topohru0223            0.01712      90.00000      90.00000     121.00000       0.00000  
topohru0224            0.08402      10.00000      10.00000     121.00000       0.00000  
topohru0225            0.01760      90.00000      90.00000     121.00000       0.00000  
topohru0226            0.11691      10.00000      10.00000     121.00000       0.00000  
topohru0227            0.19846      10.00000      10.00000     121.00000       0.00000  
topohru0228            0.12963      10.00000      10.00000     121.00000       0.00000  
topohru0229            0.21524      10.00000      10.00000     121.00000       0.00000  
topohru0230            0.02478      90.00000      90.00000     121.00000       0.00000  
topohru0231            0.27175      10.00000      10.00000     121.00000       0.00000  
topohru0232            0.11740      10.00000      10.00000     121.00000       0.00000  
topohru0233            0.08240      10.00000      10.00000     121.00000       0.00000  
topohru0234            0.03014      60.00000      60.00000     121.00000       0.00000  
topohru0235            0.10970      10.00000      10.00000     121.00000       0.00000  
topohru0236            0.17405      10.00000      10.00000     121.00000       0.00000  
topohru0237            0.01756      90.00000      90.00000     121.00000       0.00000  
topohru0238            0.08581      10.00000      10.00000     121.00000       0.00000  
topohru0239            0.21300      10.00000      10.00000     121.00000       0.00000  
topohru0240            0.12885      10.00000      10.00000     121.00000       0.00000  
topohru0241            0.27064      10.00000      10.00000     121.00000       0.00000  
topohru0242            0.00703     121.00000     121.00000     121.00000       0.00000  
topohru0243            0.07455      30.00000      30.00000     121.00000       0.00000  
topohru0244            0.01728      90.00000      90.00000     121.00000       0.00000  
topohru0245            0.05674      30.00000      30.00000     121.00000       0.00000  
topohru0246            0.01503      90.00000      90.00000     121.00000       0.00000  
topohru0247            0.07884      30.00000      30.00000     121.00000       0.00000  
topohru0248            0.01964      90.00000      90.00000     121.00000       0.00000  
topohru0249            0.05399      30.00000      30.00000     121.00000       0.00000  
topohru0250            0.02738      90.00000      90.00000     121.00000       0.00000  
topohru0251            0.00741     121.00000     121.00000     121.00000       0.00000  
topohru0252            0.10640      10.00000      10.00000     121.00000       0.00000  
topohru0253            0.00577     121.00000     121.00000     121.00000       0.00000  
topohru0254            0.05496      30.00000      30.00000     121.00000       0.00000  
topohru0255            0.07412      30.00000      30.00000     121.00000       0.00000  
topohru0256            0.00403     121.00000     121.00000     121.00000       0.00000  
topohru0257            0.00420     121.00000     121.00000     121.00000       0.00000  
topohru0258            0.05693      30.00000      30.00000     121.00000       0.00000  
topohru0259            0.02125      90.00000      90.00000     121.00000       0.00000  
topohru0260            0.00153     121.00000     121.00000     121.00000       0.00000  
topohru0261            0.00845     121.00000     121.00000     121.00000       0.00000  
topohru0262            0.10992      10.00000      10.00000     121.00000       0.00000  
topohru0263            0.00682     121.00000     121.00000     121.00000       0.00000  
topohru0264            0.01287      90.00000      90.00000     121.00000       0.00000  
topohru0265            0.05794      30.00000      30.00000     121.00000       0.00000  
topohru0266            0.00789     121.00000     121.00000     121.00000       0.00000  
topohru0267            0.05852      30.00000      30.00000     121.00000       0.00000  
topohru0268            0.01044      90.00000      90.00000     121.00000       0.00000  
topohru0269            0.12187      10.00000      10.00000     121.00000       0.00000  
topohru0270            0.35027      10.00000      10.00000     121.00000       0.00000  
topohru0271            0.04032      60.00000      60.00000     121.00000       0.00000  
topohru0272            0.21391      10.00000      10.00000     121.00000       0.00000  
topohru0273            0.05039      30.00000      30.00000     121.00000       0.00000  
topohru0274            0.01347      90.00000      90.00000     121.00000       0.00000  
topohru0275            0.00075     121.00000     121.00000     121.00000       0.00000  
topohru0276            0.02317      90.00000      90.00000     121.00000       0.00000  
topohru0277            0.11108      10.00000      10.00000     121.00000       0.00000  
topohru0278            0.20187      10.00000      10.00000     121.00000       0.00000  
topohru0279            0.01308      90.00000      90.00000     121.00000       0.00000  
topohru0280            0.28470      10.00000      10.00000     121.00000       0.00000  
topohru0281            0.10633      10.00000      10.00000     121.00000       0.00000  
topohru0282            0.01641      90.00000      90.00000     121.00000       0.00000  
topohru0283            0.06759      30.00000      30.00000     121.00000       0.00000  
topohru0284            0.21860      10.00000      10.00000     121.00000       0.00000  
topohru0285            0.09171      10.00000      10.00000     121.00000       0.00000  
topohru0286            0.01252      90.00000      90.00000     121.00000       0.00000  
topohru0287            0.01871      90.00000      90.00000     121.00000       0.00000  
topohru0288            0.04732      60.00000      60.00000     121.00000       0.00000  
topohru0289            0.20987      10.00000      10.00000     121.00000       0.00000  
topohru0290            0.09096      10.00000      10.00000     121.00000       0.00000  
topohru0291            0.02284      90.00000      90.00000     121.00000       0.00000  
topohru0292            0.25409      10.00000      10.00000     121.00000       0.00000  
topohru0293            0.11012      10.00000      10.00000     121.00000       0.00000  
topohru0294            0.21726      10.00000      10.00000     121.00000       0.00000  
topohru0295            0.09871      10.00000      10.00000     121.00000       0.00000  
topohru0296            0.02808      90.00000      90.00000     121.00000       0.00000  
topohru0297            0.07890      30.00000      30.00000     121.00000       0.00000  
topohru0298            0.21515      10.00000      10.00000     121.00000       0.00000  
topohru0299            0.01874      90.00000      90.00000     121.00000       0.00000  
topohru0300            0.11262      10.00000      10.00000     121.00000       0.00000  
topohru0301            0.21582      10.00000      10.00000     121.00000       0.00000  
topohru0302            0.48755      10.00000      10.00000     121.00000       0.00000  
topohru0303            0.10517      10.00000      10.00000     121.00000       0.00000  
topohru0304            0.34267      10.00000      10.00000     121.00000       0.00000  
topohru0305            0.25075      10.00000      10.00000     121.00000       0.00000  
topohru0306            0.10552      10.00000      10.00000     121.00000       0.00000  
topohru0307            0.41007      10.00000      10.00000     121.00000       0.00000  
topohru0308            0.10715      10.00000      10.00000     121.00000       0.00000  
topohru0309            0.43186      10.00000      10.00000     121.00000       0.00000  
topohru0310            0.11219      10.00000      10.00000     121.00000       0.00000  
topohru0311            0.40037      10.00000      10.00000     121.00000       0.00000  
topohru0312            0.34361      10.00000      10.00000     121.00000       0.00000  
topohru0313            0.11191      10.00000      10.00000     121.00000       0.00000  
topohru0314            0.41219      10.00000      10.00000     121.00000       0.00000  
topohru0315            0.11373      10.00000      10.00000     121.00000       0.00000  
topohru0316            0.29456      10.00000      10.00000     121.00000       0.00000  
topohru0317            0.10507      10.00000      10.00000     121.00000       0.00000  
topohru0318            0.02113      90.00000      90.00000     121.00000       0.00000  
topohru0319            0.39364      10.00000      10.00000     121.00000       0.00000  
topohru0320            0.10573      10.00000      10.00000     121.00000       0.00000  
topohru0321            0.01277      90.00000      90.00000     121.00000       0.00000  
topohru0322            0.04856      60.00000      60.00000     121.00000       0.00000  
topohru0323            0.01373      90.00000      90.00000     121.00000       0.00000  
topohru0324            0.05336      30.00000      30.00000     121.00000       0.00000  
topohru0325            0.01828      90.00000      90.00000     121.00000       0.00000  
topohru0326            0.05220      30.00000      30.00000     121.00000       0.00000  
topohru0327            0.25755      10.00000      10.00000     121.00000       0.00000  
topohru0328            0.02492      90.00000      90.00000     121.00000       0.00000  
topohru0329            0.08234      10.00000      10.00000     121.00000       0.00000  
topohru0330            0.19348      10.00000      10.00000     121.00000       0.00000  
topohru0331            0.08019      10.00000      10.00000     121.00000       0.00000  
topohru0332            0.01751      90.00000      90.00000     121.00000       0.00000  
topohru0333            0.07496      30.00000      30.00000     121.00000       0.00000  
topohru0334            0.01866      90.00000      90.00000     121.00000       0.00000  
topohru0335            0.20332      10.00000      10.00000     121.00000       0.00000  