wetland.       wet: written by SWAT+ edi############for SWAT+ rev.60.5.4
     id                name        init         hyd         rel         sed         nut         PST        WEIR
       1          paddy0044    initwet2       paddy        weir     sedwet1     nutwet1  default_us       weir1
       2          paddy0045    initwet2       paddy        weir     sedwet1     nutwet1  default_us       weir1
       3          paddy0046    initwet2       paddy        weir     sedwet1     nutwet1  default_us       weir1
       4          paddy0047    initwet2       paddy        weir     sedwet1     nutwet1  default_us       weir1
       5          paddy0048    initwet2       paddy        weir     sedwet1     nutwet1  default_us       weir1
       6          paddy0049    initwet2       paddy        weir     sedwet1     nutwet1  default_us       weir1
       7          paddy0050    initwet2       paddy        weir     sedwet1     nutwet1  default_us       weir1
       8          paddy0051    initwet2       paddy        weir     sedwet1     nutwet1  default_us       weir1
       9          paddy0052    initwet2       paddy        weir     sedwet1     nutwet1  default_us       weir1
      10          paddy0053    initwet2       paddy        weir     sedwet1     nutwet1  default_us       weir1
      11          paddy0074    initwet2       paddy        weir     sedwet1     nutwet1  default_us       weir1
      12          paddy0075    initwet2       paddy        weir     sedwet1     nutwet1  default_us       weir1
      13          paddy0076    initwet2       paddy        weir     sedwet1     nutwet1  default_us       weir1
      14          paddy0077    initwet2       paddy        weir     sedwet1     nutwet1  default_us       weir1
      15          paddy0078    initwet2       paddy        weir     sedwet1     nutwet1  default_us       weir1
      16          paddy0079    initwet2       paddy        weir     sedwet1     nutwet1  default_us       weir1
      17          paddy0080    initwet2       paddy        weir     sedwet1     nutwet1  default_us       weir1
      18          paddy0081    initwet2       paddy        weir     sedwet1     nutwet1  default_us       weir1
      19            wet0082    initwet1  hydwet0082     wetland     sedwet1     nutwet1  default_us        null
      20            wet0083    initwet1  hydwet0083     wetland     sedwet1     nutwet1  default_us        null
      21            wet0085    initwet1  hydwet0085     wetland     sedwet1     nutwet1  default_us        null
      22            wet0086    initwet1  hydwet0086     wetland     sedwet1     nutwet1  default_us        null
      23          paddy0108    initwet2       paddy        weir     sedwet1     nutwet1  default_us       weir1
      24          paddy0109    initwet2       paddy        weir     sedwet1     nutwet1  default_us       weir1
      25          paddy0110    initwet2       paddy        weir     sedwet1     nutwet1  default_us       weir1
      26          paddy0111    initwet2       paddy        weir     sedwet1     nutwet1  default_us       weir1
      27          paddy0112    initwet2       paddy        weir     sedwet1     nutwet1  default_us       weir1
      28          paddy0113    initwet2       paddy        weir     sedwet1     nutwet1  default_us       weir1
      29          paddy0114    initwet2       paddy        weir     sedwet1     nutwet1  default_us       weir1
      30            wet0115    initwet1  hydwet0115     wetland     sedwet1     nutwet1  default_us        null
      31            wet0116    initwet1  hydwet0116     wetland     sedwet1     nutwet1  default_us        null
      32            wet0117    initwet1  hydwet0117     wetland     sedwet1     nutwet1  default_us        null
      33            wet0118    initwet1  hydwet0118     wetland     sedwet1     nutwet1  default_us        null
      34            wet0119    initwet1  hydwet0119     wetland     sedwet1     nutwet1  default_us        null
      35            wet0120    initwet1  hydwet0120     wetland     sedwet1     nutwet1  default_us        null
      36            wet0121    initwet1  hydwet0121     wetland     sedwet1     nutwet1  default_us        null
      37            wet0122    initwet1  hydwet0122     wetland     sedwet1     nutwet1  default_us        null
      38            wet0123    initwet1  hydwet0123     wetland     sedwet1     nutwet1  default_us        null
      39            wet0124    initwet1  hydwet0124     wetland     sedwet1     nutwet1  default_us        null
      40            wet0132    initwet1  hydwet0132     wetland     sedwet1     nutwet1  default_us        null
      41            wet0133    initwet1  hydwet0133     wetland     sedwet1     nutwet1  default_us        null
      42            wet0134    initwet1  hydwet0134     wetland     sedwet1     nutwet1  default_us        null
      43          paddy0135    initwet2       paddy        weir     sedwet1     nutwet1  default_us       weir1
      44          paddy0136    initwet2       paddy        weir     sedwet1     nutwet1  default_us       weir1
      45            wet0164    initwet1  hydwet0164     wetland     sedwet1     nutwet1  default_us        null
      46            wet0165    initwet1  hydwet0165     wetland     sedwet1     nutwet1  default_us        null
      47            wet0166    initwet1  hydwet0166     wetland     sedwet1     nutwet1  default_us        null
      48            wet0167    initwet1  hydwet0167     wetland     sedwet1     nutwet1  default_us        null
      49            wet0168    initwet1  hydwet0168     wetland     sedwet1     nutwet1  default_us        null
      50            wet0169    initwet1  hydwet0169     wetland     sedwet1     nutwet1  default_us        null
      51          paddy0170    initwet2       paddy        weir     sedwet1     nutwet1  default_us       weir1
      52          paddy0171    initwet2       paddy        weir     sedwet1     nutwet1  default_us       weir1
      53          paddy0172    initwet2       paddy        weir     sedwet1     nutwet1  default_us       weir1
      54          paddy0234    initwet2       paddy        weir     sedwet1     nutwet1  default_us       weir1
      55          paddy0235    initwet2       paddy        weir     sedwet1     nutwet1  default_us       weir1
      56          paddy0236    initwet2       paddy        weir     sedwet1     nutwet1  default_us       weir1
      57          paddy0237    initwet2       paddy        weir     sedwet1     nutwet1  default_us       weir1
      58          paddy0238    initwet2       paddy        weir     sedwet1     nutwet1  default_us       weir1
      59          paddy0239    initwet2       paddy        weir     sedwet1     nutwet1  default_us       weir1
      60          paddy0240    initwet2       paddy        weir     sedwet1     nutwet1  default_us       weir1
      61          paddy0241    initwet2       paddy        weir     sedwet1     nutwet1  default_us       weir1
      62          paddy0242    initwet2       paddy        weir     sedwet1     nutwet1  default_us       weir1
      63          paddy0243    initwet2       paddy        weir     sedwet1     nutwet1  default_us       weir1
      64          paddy0244    initwet2       paddy        weir     sedwet1     nutwet1  default_us       weir1
      65          paddy0245    initwet2       paddy        weir     sedwet1     nutwet1  default_us       weir1
      66            wet0246    initwet1  hydwet0246     wetland     sedwet1     nutwet1  default_us        null
      67            wet0247    initwet1  hydwet0247     wetland     sedwet1     nutwet1  default_us        null
      68            wet0248    initwet1  hydwet0248     wetland     sedwet1     nutwet1  default_us        null
      69            wet0249    initwet1  hydwet0249     wetland     sedwet1     nutwet1  default_us        null
      70            wet0250    initwet1  hydwet0250     wetland     sedwet1     nutwet1  default_us        null
      71            wet0251    initwet1  hydwet0251     wetland     sedwet1     nutwet1  default_us        null
      72            wet0252    initwet1  hydwet0252     wetland     sedwet1     nutwet1  default_us        null
      73            wet0253    initwet1  hydwet0253     wetland     sedwet1     nutwet1  default_us        null
      74            wet0254    initwet1  hydwet0254     wetland     sedwet1     nutwet1  default_us        null
      75            wet0255    initwet1  hydwet0255     wetland     sedwet1     nutwet1  default_us        null
      76            wet0256    initwet1  hydwet0256     wetland     sedwet1     nutwet1  default_us        null
      77          paddy0263    initwet2       paddy        weir     sedwet1     nutwet1  default_us       weir1
      78          paddy0264    initwet2       paddy        weir     sedwet1     nutwet1  default_us       weir1
      79          paddy0265    initwet2       paddy        weir     sedwet1     nutwet1  default_us       weir1
      80          paddy0266    initwet2       paddy        weir     sedwet1     nutwet1  default_us       weir1
      81          paddy0267    initwet2       paddy        weir     sedwet1     nutwet1  default_us       weir1
      82          paddy0268    initwet2       paddy        weir     sedwet1     nutwet1  default_us       weir1
      83          paddy0269    initwet2       paddy        weir     sedwet1     nutwet1  default_us       weir1
      84          paddy0321    initwet2       paddy        weir     sedwet1     nutwet1  default_us       weir1
      85          paddy0322    initwet2       paddy        weir     sedwet1     nutwet1  default_us       weir1
      86          paddy0323    initwet2       paddy        weir     sedwet1     nutwet1  default_us       weir1
      87          paddy0324    initwet2       paddy        weir     sedwet1     nutwet1  default_us       weir1
      88          paddy0325    initwet2       paddy        weir     sedwet1     nutwet1  default_us       weir1
      89          paddy0326    initwet2       paddy        weir     sedwet1     nutwet1  default_us       weir1
      90          paddy0327    initwet2       paddy        weir     sedwet1     nutwet1  default_us       weir1
      91          paddy0328    initwet2       paddy        weir     sedwet1     nutwet1  default_us       weir1
      92          paddy0329    initwet2       paddy        weir     sedwet1     nutwet1  default_us       weir1
      93          paddy0330    initwet2       paddy        weir     sedwet1     nutwet1  default_us       weir1
      94          paddy0331    initwet2       paddy        weir     sedwet1     nutwet1  default_us       weir1
      95          paddy0332    initwet2       paddy        weir     sedwet1     nutwet1  default_us       weir1
      96          paddy0333    initwet2       paddy        weir     sedwet1     nutwet1  default_us       weir1
      97          paddy0334    initwet2       paddy        weir     sedwet1     nutwet1  default_us       weir1
      98          paddy0335    initwet2       paddy        weir     sedwet1     nutwet1  default_us       weir1
      99          paddy0336    initwet2       paddy        weir     sedwet1     nutwet1  default_us       weir1
     100          paddy0337    initwet2       paddy        weir     sedwet1     nutwet1  default_us       weir1
     101          paddy0338    initwet2       paddy        weir     sedwet1     nutwet1  default_us       weir1
     102          paddy0339    initwet2       paddy        weir     sedwet1     nutwet1  default_us       weir1
     103          paddy0340    initwet2       paddy        weir     sedwet1     nutwet1  default_us       weir1
     104          paddy0341    initwet2       paddy        weir     sedwet1     nutwet1  default_us       weir1
     105            wet0358    initwet1  hydwet0358     wetland     sedwet1     nutwet1  default_us        null
     106            wet0359    initwet1  hydwet0359     wetland     sedwet1     nutwet1  default_us        null
     107            wet0360    initwet1  hydwet0360     wetland     sedwet1     nutwet1  default_us        null
     108            wet0361    initwet1  hydwet0361     wetland     sedwet1     nutwet1  default_us        null
     109            wet0362    initwet1  hydwet0362     wetland     sedwet1     nutwet1  default_us        null
     110            wet0363    initwet1  hydwet0363     wetland     sedwet1     nutwet1  default_us        null
     111            wet0364    initwet1  hydwet0364     wetland     sedwet1     nutwet1  default_us        null
     112            wet0365    initwet1  hydwet0365     wetland     sedwet1     nutwet1  default_us        null
     113          paddy0381    initwet2       paddy        weir     sedwet1     nutwet1  default_us       weir1
     114          paddy0382    initwet2       paddy        weir     sedwet1     nutwet1  default_us       weir1
     115          paddy0383    initwet2       paddy        weir     sedwet1     nutwet1  default_us       weir1
     116          paddy0384    initwet2       paddy        weir     sedwet1     nutwet1  default_us       weir1
     117          paddy0385    initwet2       paddy        weir     sedwet1     nutwet1  default_us       weir1
     118          paddy0386    initwet2       paddy        weir     sedwet1     nutwet1  default_us       weir1
     119          paddy0387    initwet2       paddy        weir     sedwet1     nutwet1  default_us       weir1
     120          paddy0388    initwet2       paddy        weir     sedwet1     nutwet1  default_us       weir1
     121          paddy0389    initwet2       paddy        weir     sedwet1     nutwet1  default_us       weir1
     122          paddy0390    initwet2       paddy        weir     sedwet1     nutwet1  default_us       weir1
     123          paddy0391    initwet2       paddy        weir     sedwet1     nutwet1  default_us       weir1
     124            wet0401    initwet1  hydwet0401     wetland     sedwet1     nutwet1  default_us        null
     125            wet0402    initwet1  hydwet0402     wetland     sedwet1     nutwet1  default_us        null
     126            wet0403    initwet1  hydwet0403     wetland     sedwet1     nutwet1  default_us        null
     127            wet0404    initwet1  hydwet0404     wetland     sedwet1     nutwet1  default_us        null
     128            wet0405    initwet1  hydwet0405     wetland     sedwet1     nutwet1  default_us        null
     129          paddy0480    initwet2       paddy        weir     sedwet1     nutwet1  default_us       weir1
     130          paddy0481    initwet2       paddy        weir     sedwet1     nutwet1  default_us       weir1
     131          paddy0482    initwet2       paddy        weir     sedwet1     nutwet1  default_us       weir1
     132          paddy0483    initwet2       paddy        weir     sedwet1     nutwet1  default_us       weir1
     133          paddy0484    initwet2       paddy        weir     sedwet1     nutwet1  default_us       weir1
     134          paddy0485    initwet2       paddy        weir     sedwet1     nutwet1  default_us       weir1
     135          paddy0486    initwet2       paddy        weir     sedwet1     nutwet1  default_us       weir1
     136          paddy0487    initwet2       paddy        weir     sedwet1     nutwet1  default_us       weir1
     137          paddy0488    initwet2       paddy        weir     sedwet1     nutwet1  default_us       weir1
     138          paddy0489    initwet2       paddy        weir     sedwet1     nutwet1  default_us       weir1
     139          paddy0490    initwet2       paddy        weir     sedwet1     nutwet1  default_us       weir1
     140          paddy0491    initwet2       paddy        weir     sedwet1     nutwet1  default_us       weir1
     141          paddy0492    initwet2       paddy        weir     sedwet1     nutwet1  default_us       weir1
     142          paddy0493    initwet2       paddy        weir     sedwet1     nutwet1  default_us       weir1
     143          paddy0494    initwet2       paddy        weir     sedwet1     nutwet1  default_us       weir1
     144          paddy0495    initwet2       paddy        weir     sedwet1     nutwet1  default_us       weir1
     145          paddy0496    initwet2       paddy        weir     sedwet1     nutwet1  default_us       weir1
     146          paddy0497    initwet2       paddy        weir     sedwet1     nutwet1  default_us       weir1
     147          paddy0498    initwet2       paddy        weir     sedwet1     nutwet1  default_us       weir1
     148          paddy0499    initwet2       paddy        weir     sedwet1     nutwet1  default_us       weir1
     149            wet0522    initwet1  hydwet0522     wetland     sedwet1     nutwet1  default_us        null
     150            wet0523    initwet1  hydwet0523     wetland     sedwet1     nutwet1  default_us        null
     151            wet0524    initwet1  hydwet0524     wetland     sedwet1     nutwet1  default_us        null
     152            wet0525    initwet1  hydwet0525     wetland     sedwet1     nutwet1  default_us        null
     153            wet0526    initwet1  hydwet0526     wetland     sedwet1     nutwet1  default_us        null
     154            wet0527    initwet1  hydwet0527     wetland     sedwet1     nutwet1  default_us        null
     155            wet0528    initwet1  hydwet0528     wetland     sedwet1     nutwet1  default_us        null
     156            wet0529    initwet1  hydwet0529     wetland     sedwet1     nutwet1  default_us        null
     157            wet0530    initwet1  hydwet0530     wetland     sedwet1     nutwet1  default_us        null
     158            wet0531    initwet1  hydwet0531     wetland     sedwet1     nutwet1  default_us        null
     159            wet0532    initwet1  hydwet0532     wetland     sedwet1     nutwet1  default_us        null
     160            wet0533    initwet1  hydwet0533     wetland     sedwet1     nutwet1  default_us        null
     161            wet0534    initwet1  hydwet0534     wetland     sedwet1     nutwet1  default_us        null
     162            wet0540    initwet1  hydwet0540     wetland     sedwet1     nutwet1  default_us        null
     163            wet0541    initwet1  hydwet0541     wetland     sedwet1     nutwet1  default_us        null
     164            wet0542    initwet1  hydwet0542     wetland     sedwet1     nutwet1  default_us        null
     165            wet0543    initwet1  hydwet0543     wetland     sedwet1     nutwet1  default_us        null
     166            wet0544    initwet1  hydwet0544     wetland     sedwet1     nutwet1  default_us        null
     167          paddy0545    initwet2       paddy        weir     sedwet1     nutwet1  default_us       weir1
     168          paddy0546    initwet2       paddy        weir     sedwet1     nutwet1  default_us       weir1
     169          paddy0547    initwet2       paddy        weir     sedwet1     nutwet1  default_us       weir1
     170          paddy0548    initwet2       paddy        weir     sedwet1     nutwet1  default_us       weir1
     171          paddy0549    initwet2       paddy        weir     sedwet1     nutwet1  default_us       weir1
     172          paddy0550    initwet2       paddy        weir     sedwet1     nutwet1  default_us       weir1
     173          paddy0551    initwet2       paddy        weir     sedwet1     nutwet1  default_us       weir1
     174          paddy0552    initwet2       paddy        weir     sedwet1     nutwet1  default_us       weir1
     175          paddy0553    initwet2       paddy        weir     sedwet1     nutwet1  default_us       weir1
     176          paddy0554    initwet2       paddy        weir     sedwet1     nutwet1  default_us       weir1
     177          paddy0562    initwet2       paddy        weir     sedwet1     nutwet1  default_us       weir1
     178          paddy0563    initwet2       paddy        weir     sedwet1     nutwet1  default_us       weir1
     179          paddy0564    initwet2       paddy        weir     sedwet1     nutwet1  default_us       weir1
     180          paddy0565    initwet2       paddy        weir     sedwet1     nutwet1  default_us       weir1
     181          paddy0566    initwet2       paddy        weir     sedwet1     nutwet1  default_us       weir1
     182          paddy0567    initwet2       paddy        weir     sedwet1     nutwet1  default_us       weir1
     183          paddy0568    initwet2       paddy        weir     sedwet1     nutwet1  default_us       weir1
     184          paddy0569    initwet2       paddy        weir     sedwet1     nutwet1  default_us       weir1
     185          paddy0570    initwet2       paddy        weir     sedwet1     nutwet1  default_us       weir1
     186          paddy0571    initwet2       paddy        weir     sedwet1     nutwet1  default_us       weir1
     187          paddy0572    initwet2       paddy        weir     sedwet1     nutwet1  default_us       weir1
     188          paddy0573    initwet2       paddy        weir     sedwet1     nutwet1  default_us       weir1
     189          paddy0624    initwet2       paddy        weir     sedwet1     nutwet1  default_us       weir1
     190          paddy0625    initwet2       paddy        weir     sedwet1     nutwet1  default_us       weir1
     191          paddy0626    initwet2       paddy        weir     sedwet1     nutwet1  default_us       weir1
     192          paddy0627    initwet2       paddy        weir     sedwet1     nutwet1  default_us       weir1
     193          paddy0628    initwet2       paddy        weir     sedwet1     nutwet1  default_us       weir1
     194            wet0629    initwet1  hydwet0629     wetland     sedwet1     nutwet1  default_us        null
     195            wet0630    initwet1  hydwet0630     wetland     sedwet1     nutwet1  default_us        null
     196            wet0631    initwet1  hydwet0631     wetland     sedwet1     nutwet1  default_us        null
     197            wet0632    initwet1  hydwet0632     wetland     sedwet1     nutwet1  default_us        null
     198            wet0633    initwet1  hydwet0633     wetland     sedwet1     nutwet1  default_us        null
     199          paddy0696    initwet2       paddy        weir     sedwet1     nutwet1  default_us       weir1
     200          paddy0697    initwet2       paddy        weir     sedwet1     nutwet1  default_us       weir1
     201          paddy0698    initwet2       paddy        weir     sedwet1     nutwet1  default_us       weir1
     202          paddy0699    initwet2       paddy        weir     sedwet1     nutwet1  default_us       weir1
     203          paddy0700    initwet2       paddy        weir     sedwet1     nutwet1  default_us       weir1
     204          paddy0701    initwet2       paddy        weir     sedwet1     nutwet1  default_us       weir1
     205          paddy0702    initwet2       paddy        weir     sedwet1     nutwet1  default_us       weir1
     206          paddy0703    initwet2       paddy        weir     sedwet1     nutwet1  default_us       weir1
     207          paddy0704    initwet2       paddy        weir     sedwet1     nutwet1  default_us       weir1
     208          paddy0705    initwet2       paddy        weir     sedwet1     nutwet1  default_us       weir1
     209          paddy0706    initwet2       paddy        weir     sedwet1     nutwet1  default_us       weir1
     210          paddy0707    initwet2       paddy        weir     sedwet1     nutwet1  default_us       weir1
     211          paddy0708    initwet2       paddy        weir     sedwet1     nutwet1  default_us       weir1
     212          paddy0709    initwet2       paddy        weir     sedwet1     nutwet1  default_us       weir1
     213          paddy0710    initwet2       paddy        weir     sedwet1     nutwet1  default_us       weir1
     214          paddy0711    initwet2       paddy        weir     sedwet1     nutwet1  default_us       weir1
     215          paddy0734    initwet2       paddy        weir     sedwet1     nutwet1  default_us       weir1
     216          paddy0735    initwet2       paddy        weir     sedwet1     nutwet1  default_us       weir1
     217          paddy0736    initwet2       paddy        weir     sedwet1     nutwet1  default_us       weir1
     218          paddy0737    initwet2       paddy        weir     sedwet1     nutwet1  default_us       weir1
     219          paddy0742    initwet2       paddy        weir     sedwet1     nutwet1  default_us       weir1
     220          paddy0743    initwet2       paddy        weir     sedwet1     nutwet1  default_us       weir1
     221          paddy0744    initwet2       paddy        weir     sedwet1     nutwet1  default_us       weir1
     222          paddy0745    initwet2       paddy        weir     sedwet1     nutwet1  default_us       weir1
     223          paddy0746    initwet2       paddy        weir     sedwet1     nutwet1  default_us       weir1
     224          paddy0747    initwet2       paddy        weir     sedwet1     nutwet1  default_us       weir1
     225          paddy0748    initwet2       paddy        weir     sedwet1     nutwet1  default_us       weir1
     226          paddy0749    initwet2       paddy        weir     sedwet1     nutwet1  default_us       weir1
     227          paddy0750    initwet2       paddy        weir     sedwet1     nutwet1  default_us       weir1
     228          paddy0751    initwet2       paddy        weir     sedwet1     nutwet1  default_us       weir1
     229          paddy0752    initwet2       paddy        weir     sedwet1     nutwet1  default_us       weir1
     230          paddy0753    initwet2       paddy        weir     sedwet1     nutwet1  default_us       weir1
     231          paddy0754    initwet2       paddy        weir     sedwet1     nutwet1  default_us       weir1
     232            wet0837    initwet1  hydwet0837     wetland     sedwet1     nutwet1  default_us        null
     233            wet0838    initwet1  hydwet0838     wetland     sedwet1     nutwet1  default_us        null
     234            wet0839    initwet1  hydwet0839     wetland     sedwet1     nutwet1  default_us        null
     235            wet0840    initwet1  hydwet0840     wetland     sedwet1     nutwet1  default_us        null
     236            wet0841    initwet1  hydwet0841     wetland     sedwet1     nutwet1  default_us        null
     237            wet0842    initwet1  hydwet0842     wetland     sedwet1     nutwet1  default_us        null
     238          paddy0843    initwet2       paddy        weir     sedwet1     nutwet1  default_us       weir1
     239          paddy0844    initwet2       paddy        weir     sedwet1     nutwet1  default_us       weir1
     240          paddy0845    initwet2       paddy        weir     sedwet1     nutwet1  default_us       weir1
     241          paddy0846    initwet2       paddy        weir     sedwet1     nutwet1  default_us       weir1
     242          paddy0847    initwet2       paddy        weir     sedwet1     nutwet1  default_us       weir1
     243          paddy0848    initwet2       paddy        weir     sedwet1     nutwet1  default_us       weir1
     244          paddy0849    initwet2       paddy        weir     sedwet1     nutwet1  default_us       weir1
     245          paddy0850    initwet2       paddy        weir     sedwet1     nutwet1  default_us       weir1
     246          paddy0879    initwet2       paddy        weir     sedwet1     nutwet1  default_us       weir1
     247          paddy0880    initwet2       paddy        weir     sedwet1     nutwet1  default_us       weir1
     248          paddy0881    initwet2       paddy        weir     sedwet1     nutwet1  default_us       weir1
     249          paddy0882    initwet2       paddy        weir     sedwet1     nutwet1  default_us       weir1
     250          paddy0883    initwet2       paddy        weir     sedwet1     nutwet1  default_us       weir1
     251          paddy0884    initwet2       paddy        weir     sedwet1     nutwet1  default_us       weir1
     252          paddy0885    initwet2       paddy        weir     sedwet1     nutwet1  default_us       weir1
     253          paddy0886    initwet2       paddy        weir     sedwet1     nutwet1  default_us       weir1
     254          paddy0887    initwet2       paddy        weir     sedwet1     nutwet1  default_us       weir1
     255          paddy0888    initwet2       paddy        weir     sedwet1     nutwet1  default_us       weir1
     256          paddy0889    initwet2       paddy        weir     sedwet1     nutwet1  default_us       weir1
     257          paddy0890    initwet2       paddy        weir     sedwet1     nutwet1  default_us       weir1
     258          paddy0891    initwet2       paddy        weir     sedwet1     nutwet1  default_us       weir1
     259          paddy0892    initwet2       paddy        weir     sedwet1     nutwet1  default_us       weir1
     260          paddy0893    initwet2       paddy        weir     sedwet1     nutwet1  default_us       weir1
     261          paddy0894    initwet2       paddy        weir     sedwet1     nutwet1  default_us       weir1
     262          paddy0895    initwet2       paddy        weir     sedwet1     nutwet1  default_us       weir1
     263          paddy0896    initwet2       paddy        weir     sedwet1     nutwet1  default_us       weir1
     264          paddy0897    initwet2       paddy        weir     sedwet1     nutwet1  default_us       weir1
     265          paddy0898    initwet2       paddy        weir     sedwet1     nutwet1  default_us       weir1
     266          paddy0899    initwet2       paddy        weir     sedwet1     nutwet1  default_us       weir1