chandeg.con: written by SWAT+ editor v2.3.3 on 2023-12-13 20:04 for SWAT+ rev.60.5.7
      id  name                gis_id          area           lat           lon          elev      lcha               wst       cst      ovfl      rule   out_tot       obj_typ    obj_id       hyd_typ          frac  
       1  cha01                    1       7.34250      39.42315      -0.34272             0         1       s39280n462w         0         0         0         1           sdc        63           tot       1.00000  
       2  cha02                    2     184.50750      39.38544      -0.33757             0         2       s39280n462w         0         0         0         1           sdc        36           tot       1.00000  
       3  cha03                    3     550.22000      39.38099      -0.33489             0         3       s39280n462w         0         0         0         1           sdc        49           tot       1.00000  
       4  cha04                    4       0.44500      39.41415      -0.36583             0         4       s39280n462w         0         0         0         1           sdc        62           tot       1.00000  
       5  cha05                    5       7.29250      39.41935      -0.35405             0         5       s39280n462w         0         0         0         1           sdc        43           tot       1.00000  
       6  cha06                    6       8.02500      39.41755      -0.35597             0         6       s39280n462w         0         0         0         1           sdc        41           tot       1.00000  
       7  cha07                    7      11.02750      39.41645      -0.35738             0         7       s39280n462w         0         0         0         1           sdc        42           tot       1.00000  
       8  cha08                    8      16.30000      39.41540      -0.35951             0         8       s39280n462w         0         0         0         1           sdc        42           tot       1.00000  
       9  cha09                    9      31.07250      39.41269      -0.35624             0         9       s39280n462w         0         0         0         1           sdc        64           tot       1.00000  
      10  cha10                   10       2.92250      39.41385      -0.36677             0        10       s39280n462w         0         0         0         1           sdc        62           tot       1.00000  
      11  cha11                   11      82.15750      39.39615      -0.35597             0        11       s39280n462w         0         0         0         1           sdc        60           tot       1.00000  
      12  cha12                   12      13.45750      39.42411      -0.35038             0        12       s39280n462w         0         0         0         1           sdc        46           tot       1.00000  
      13  cha13                   13      40.34250      39.38360      -0.33482             0        13       s39280n462w         0         0         0         1           sdc        48           tot       1.00000  
      14  cha14                   14      42.59500      39.37764      -0.33438             0        14       s39280n462w         0         0         0         1           sdc        50           tot       1.00000  
      15  cha15                   15      17.24750      39.36836      -0.33154             0        15       s39280n462w         0         0         0         1           sdc        74           tot       1.00000  
      16  cha16                   16      37.79750      39.36354      -0.33027             0        16       s39280n462w         0         0         0         1           sdc        76           tot       1.00000  
      17  cha17                   17      62.50250      39.39363      -0.34521             0        17       s39280n462w         0         0         0         1           sdc        39           tot       1.00000  
      18  cha18                   18     114.91750      39.39273      -0.34606             0        18       s39280n462w         0         0         0         1           sdc        65           tot       1.00000  
      19  cha19                   19       4.68500      39.38767      -0.34146             0        19       s39280n462w         0         0         0         1           sdc        67           tot       1.00000  
      20  cha20                   20      44.15250      39.38340      -0.34188             0        20       s39280n462w         0         0         0         1           sdc        69           tot       1.00000  
      21  cha21                   21     149.70750      39.38565      -0.33776             0        21       s39280n462w         0         0         0         1           sdc         2           tot       1.00000  
      22  cha22                   22       5.34500      39.38128      -0.34097             0        22       s39280n462w         0         0         0         1           sdc        55           tot       1.00000  
      23  cha23                   23      12.94750      39.37409      -0.33753             0        23       s39280n462w         0         0         0         1           sdc        53           tot       1.00000  
      24  cha24                   24       6.89750      39.36993      -0.33517             0        24       s39280n462w         0         0         0         1           sdc        70           tot       1.00000  
      25  cha25                   25      22.37500      39.38338      -0.34400             0        25       s39280n462w         0         0         0         1           sdc        68           tot       1.00000  
      26  cha26                   26      10.50250      39.37849      -0.34102             0        26       s39280n462w         0         0         0         1           sdc        54           tot       1.00000  
      27  cha27                   27      12.27250      39.37001      -0.33659             0        27       s39280n462w         0         0         0         1           sdc        52           tot       1.00000  
      28  cha28                   28      50.36500      39.39480      -0.35808             0        28       s39280n462w         0         0         0         1           sdc        59           tot       1.00000  
      29  cha29                   29      14.13750      39.38987      -0.35406             0        29       s39280n462w         0         0         0         1           sdc        58           tot       1.00000  
      30  cha30                   30      43.79750      39.37692      -0.34213             0        30       s39280n462w         0         0         0         1           sdc        57           tot       1.00000  
      31  cha31                   31      37.91500      39.36783      -0.33867             0        31       s39280n462w         0         0         0         1           sdc        71           tot       1.00000  
      32  cha32                   32      18.59000      39.35938      -0.33676             0        32       s39280n462w         0         0         0         1           sdc        73           tot       1.00000  
      33  cha33                   33      28.19750      39.36058      -0.33587             0        33       s39280n462w         0         0         0         1           sdc        72           tot       1.00000  
      34  cha34                   34      24.91750      39.42141      -0.34447             0        34       s39280n462w         0         0         0         1           sdc        37           tot       1.00000  
      35  cha35                   35       0.50000      39.42430      -0.35078             0        35       s39280n462w         0         0         0         1           sdc        46           tot       1.00000  
      36  cha36                   36     354.31750      39.38379      -0.33658             0        36       s39280n462w         0         0         0         1           sdc         3           tot       1.00000  
      37  cha37                   37      34.77750      39.40344      -0.34086             0        37       s39280n462w         0         0         0         1           sdc         2           tot       1.00000  
      38  cha38                   38       1.59750      39.42448      -0.34479             0        38       s39280n462w         0         0         0         1           sdc        37           tot       1.00000  
      39  cha39                   39      83.06250      39.39327      -0.34499             0        39       s39280n462w         0         0         0         1           sdc        66           tot       1.00000  
      40  cha40                   40      47.41500      39.41361      -0.35325             0        40       s39280n462w         0         0         0         1           sdc        64           tot       1.00000  
      41  cha41                   41      19.34500      39.41593      -0.35322             0        41       s39280n462w         0         0         0         1           sdc        40           tot       1.00000  
      42  cha42                   42      27.44250      39.41537      -0.35353             0        42       s39280n462w         0         0         0         1           sdc        40           tot       1.00000  
      43  cha43                   43      11.14250      39.41710      -0.35320             0        43       s39280n462w         0         0         0         1           sdc        41           tot       1.00000  
      44  cha44                   44       3.63500      39.41987      -0.35316             0        44       s39280n462w         0         0         0         1           sdc        43           tot       1.00000  
      45  cha45                   45       2.91250      39.42210      -0.35319             0        45       s39280n462w         0         0         0         1           sdc        44           tot       1.00000  
      46  cha46                   46      20.52750      39.40865      -0.34780             0        46       s39280n462w         0         0         0         1           sdc        39           tot       1.00000  
      47  cha47                   47       7.73500      39.40199      -0.33758             0        47       s39280n462w         0         0         0         1           sdc        48           tot       1.00000  
      48  cha48                   48      49.74000      39.38163      -0.33455             0        48       s39280n462w         0         0         0         1           sdc        49           tot       1.00000  
      49  cha49                   49     600.72250      39.37885      -0.33393             0        49       s39280n462w         0         0         0         1           sdc        50           tot       1.00000  
      50  cha50                   50     644.34750      39.37549      -0.33287             0        50       s39280n462w         0         0         0         1           sdc        51           tot       1.00000  
      51  cha51                   51     781.45250      39.37061      -0.33146             0        51       s39280n462w         0         0         0         1           sdc        74           tot       1.00000  
      52  cha52                   52     113.76250      39.37002      -0.33575             0        52       s39280n462w         0         0         0         1           sdc        70           tot       1.00000  
      53  cha53                   53     101.41750      39.37189      -0.33683             0        53       s39280n462w         0         0         0         1           sdc        52           tot       1.00000  
      54  cha54                   54      87.51500      39.37611      -0.33920             0        54       s39280n462w         0         0         0         1           sdc        53           tot       1.00000  
      55  cha55                   55      75.74250      39.37987      -0.34123             0        55       s39280n462w         0         0         0         1           sdc        54           tot       1.00000  
      56  cha56                   56       2.58500      39.38772      -0.34752             0        56       s39280n462w         0         0         0         1           sdc        68           tot       1.00000  
      57  cha57                   57     202.26250      39.37256      -0.33965             0        57       s39280n462w         0         0         0         1           sdc        71           tot       1.00000  
      58  cha58                   58     156.48500      39.38357      -0.34762             0        58       s39280n462w         0         0         0         1           sdc        57           tot       1.00000  
      59  cha59                   59      56.54500      39.39264      -0.35529             0        59       s39280n462w         0         0         0         1           sdc        60           tot       1.00000  
      60  cha60                   60     138.74250      39.39020      -0.35376             0        60       s39280n462w         0         0         0         1           sdc        58           tot       1.00000  
      61  cha61                   61       4.89500      39.40335      -0.36359             0        61       s39280n462w         0         0         0         1           sdc        59           tot       1.00000  
      62  cha62                   62      10.28750      39.40271      -0.35621             0        62       s39280n462w         0         0         0         1           sdc        65           tot       1.00000  
      63  cha63                   63     194.81750      39.40171      -0.33912             0        63       s39280n462w         0         0         0         1           sdc         3           tot       1.00000  
      64  cha64                   64      83.15750      39.40248      -0.34914             0        64       s39280n462w         0         0         0         1           sdc        66           tot       1.00000  
      65  cha65                   65     126.87500      39.38996      -0.34419             0        65       s39280n462w         0         0         0         1           sdc        67           tot       1.00000  
      66  cha66                   66     168.75000      39.38926      -0.34128             0        66       s39280n462w         0         0         0         1           sdc        36           tot       1.00000  
      67  cha67                   67     136.03250      39.38029      -0.33692             0        67       s39280n462w         0         0         0         1           sdc        51           tot       1.00000  
      68  cha68                   68      25.01500      39.38334      -0.34322             0        68       s39280n462w         0         0         0         1           sdc        69           tot       1.00000  
      69  cha69                   69      69.73750      39.38220      -0.34251             0        69       s39280n462w         0         0         0         1           sdc        55           tot       1.00000  
      70  cha70                   70     123.06250      39.36426      -0.33446             0        70       s39280n462w         0         0         0         0  
      71  cha71                   71     241.67500      39.36437      -0.33703             0        71       s39280n462w         0         0         0         1           sdc        72           tot       1.00000  
      72  cha72                   72     270.10750      39.36005      -0.33633             0        72       s39280n462w         0         0         0         1           sdc        73           tot       1.00000  
      73  cha73                   73     288.84250      39.35908      -0.33619             0        73       s39280n462w         0         0         0         0  
      74  cha74                   74     799.70500      39.36586      -0.33027             0        74       s39280n462w         0         0         0         1           sdc        76           tot       1.00000  
      75  cha75                   75      37.12250      39.36013      -0.32823             0        75       s39280n462w         0         0         0         1           sdc        77           tot       1.00000  
      76  cha76                   76     838.17250      39.36181      -0.32944             0        76       s39280n462w         0         0         0         1           sdc        77           tot       1.00000  
      77  cha77                   77     875.93000      39.35903      -0.32931             0        77       s39280n462w         0         0         0         0  
