hru.con: written by SWAT+ editor v2.3.3 on 2023-12-13 20:04 for SWAT+ rev.60.5.7
      id  name                gis_id          area           lat           lon          elev       hru               wst       cst      ovfl      rule   out_tot  
       1  hru01                    1       1.59750      39.42461      -0.34470       0.77934         1       s39280n462w         0         0         0         0  
       2  hru02                    2       7.34250      39.42383      -0.34364       1.01907         2       s39280n462w         0         0         0         0  
       3  hru03                    3       0.50000      39.42519      -0.35118       1.27500         3       s39280n462w         0         0         0         0  
       4  hru04                    4      13.45750      39.42682      -0.34955       1.27104         4       s39280n462w         0         0         0         0  
       5  hru05                    5       0.72250      39.41989      -0.35315       0.30796         5       s39280n462w         0         0         0         0  
       6  hru06                    6      24.91750      39.42416      -0.34698       1.00492         6       s39280n462w         0         0         0         0  
       7  hru07                    7       7.29250      39.41977      -0.35418       1.12376         7       s39280n462w         0         0         0         0  
       8  hru08                    8       8.26250      39.40162      -0.34306       0.04690         8       s39280n462w         0         0         0         0  
       9  hru09                    9       7.73500      39.40298      -0.33760       0.46057         9       s39280n462w         0         0         0         0  
      10  hru10                   10       6.57000      39.40759      -0.34946       0.43988        10       s39280n462w         0         0         0         0  
      11  hru11                   11       0.21500      39.41712      -0.35320       0.02326        11       s39280n462w         0         0         0         0  
      12  hru12                   12       8.02500      39.41834      -0.35575       0.95327        12       s39280n462w         0         0         0         0  
      13  hru13                   13       0.17750      39.41596      -0.35321       0.08451        13       s39280n462w         0         0         0         0  
      14  hru14                   14      11.02750      39.41707      -0.35721       0.91045        14       s39280n462w         0         0         0         0  
      15  hru15                   15       0.11500      39.41539      -0.35360       0.04348        15       s39280n462w         0         0         0         0  
      16  hru16                   16      16.30000      39.41581      -0.35994       1.07561        16       s39280n462w         0         0         0         0  
      17  hru17                   17       0.62750      39.41366      -0.35324       0.00000        17       s39280n462w         0         0         0         0  
      18  hru18                   18      31.07250      39.41361      -0.35895       0.80739        18       s39280n462w         0         0         0         0  
      19  hru19                   19       4.67000      39.40097      -0.35075       0.12099        19       s39280n462w         0         0         0         0  
      20  hru20                   20       0.44500      39.41417      -0.36592       1.39888        20       s39280n462w         0         0         0         0  
      21  hru21                   21       2.92250      39.41425      -0.36682       1.55175        21       s39280n462w         0         0         0         0  
      22  hru22                   22       6.92000      39.40172      -0.35689       0.81395        22       s39280n462w         0         0         0         0  
      23  hru23                   23       4.89500      39.40341      -0.36253       0.29111        23       s39280n462w         0         0         0         0  
      24  hru24                   24      82.15750      39.40146      -0.35928       0.40039        24       s39280n462w         0         0         0         0  
      25  hru25                   25      50.36500      39.40330      -0.36422       0.77142        25       s39280n462w         0         0         0         0  
      26  hru26                   26       1.28500      39.39253      -0.35537       0.00000        26       s39280n462w         0         0         0         0  
      27  hru27                   27       0.04000      39.39021      -0.35377       0.12500        27       s39280n462w         0         0         0         0  
      28  hru28                   28      14.13750      39.39232      -0.35681       0.04279        28       s39280n462w         0         0         0         0  
      29  hru29                   29     114.91750      39.40503      -0.35619       0.38669        29       s39280n462w         0         0         0         0  
      30  hru30                   30       2.58500      39.38780      -0.34729       0.00000        30       s39280n462w         0         0         0         0  
      31  hru31                   31      62.50250      39.41086      -0.35150       0.57666        31       s39280n462w         0         0         0         0  
      32  hru32                   32       0.03250      39.39330      -0.34498       0.00000        32       s39280n462w         0         0         0         0  
      33  hru33                   33       2.53000      39.38906      -0.34153       0.05336        33       s39280n462w         0         0         0         0  
      34  hru34                   34       1.67000      39.39025      -0.34403       0.18862        34       s39280n462w         0         0         0         0  
      35  hru35                   35       3.60500      39.38389      -0.34704       0.00069        35       s39280n462w         0         0         0         0  
      36  hru36                   36       4.68500      39.39061      -0.34369       0.00160        36       s39280n462w         0         0         0         0  
      37  hru37                   37       4.47250      39.37997      -0.33826       0.27837        37       s39280n462w         0         0         0         0  
      38  hru38                   38     149.70750      39.40798      -0.34685       0.41800        38       s39280n462w         0         0         0         0  
      39  hru39                   39       1.06000      39.38380      -0.33663       0.13679        39       s39280n462w         0         0         0         0  
      40  hru40                   40     187.47500      39.40302      -0.34054       0.24321        40       s39280n462w         0         0         0         0  
      41  hru41                   41      40.34250      39.39812      -0.33621       0.21435        41       s39280n462w         0         0         0         0  
      42  hru42                   42       1.66250      39.38160      -0.33460       0.65564        42       s39280n462w         0         0         0         0  
      43  hru43                   43       1.08500      39.38115      -0.33502       0.82028        43       s39280n462w         0         0         0         0  
      44  hru44                   44      22.37500      39.38710      -0.34814       0.00358        44       s39280n462w         0         0         0         0  
      45  hru45                   45       0.05500      39.38334      -0.34324       0.00000        45       s39280n462w         0         0         0         0  
      46  hru46                   46      44.15250      39.38892      -0.34583       0.00515        46       s39280n462w         0         0         0         0  
      47  hru47                   47       0.57000      39.38221      -0.34259       0.00000        47       s39280n462w         0         0         0         0  
      48  hru48                   48       5.34500      39.38235      -0.34121       0.00000        48       s39280n462w         0         0         0         0  
      49  hru49                   49       0.66000      39.37991      -0.34131       0.00000        49       s39280n462w         0         0         0         0  
      50  hru50                   50      10.50250      39.38092      -0.34313       0.00000        50       s39280n462w         0         0         0         0  
      51  hru51                   51       1.27000      39.37616      -0.33924       0.00000        51       s39280n462w         0         0         0         0  
      52  hru52                   52      43.79750      39.38250      -0.34777       0.00251        52       s39280n462w         0         0         0         0  
      53  hru53                   53       1.98000      39.37284      -0.33925       0.00000        53       s39280n462w         0         0         0         0  
      54  hru54                   54       0.76250      39.37891      -0.33384       0.60984        54       s39280n462w         0         0         0         0  
      55  hru55                   55      42.59500      39.38055      -0.33698       0.06638        55       s39280n462w         0         0         0         0  
      56  hru56                   56       1.03000      39.37549      -0.33282       0.57282        56       s39280n462w         0         0         0         0  
      57  hru57                   57       1.07250      39.37067      -0.33142       0.23776        57       s39280n462w         0         0         0         0  
      58  hru58                   58      12.94750      39.37783      -0.33904       0.00193        58       s39280n462w         0         0         0         0  
      59  hru59                   59       0.95500      39.37191      -0.33685       0.00262        59       s39280n462w         0         0         0         0  
      60  hru60                   60      12.27250      39.37407      -0.33897       0.00000        60       s39280n462w         0         0         0         0  
      61  hru61                   61       0.07250      39.37002      -0.33578       0.10345        61       s39280n462w         0         0         0         0  
      62  hru62                   62       6.89750      39.37174      -0.33569       0.00362        62       s39280n462w         0         0         0         0  
      63  hru63                   63       2.40250      39.36444      -0.33422       0.01041        63       s39280n462w         0         0         0         0  
      64  hru64                   64      37.91500      39.37217      -0.34127       0.00000        64       s39280n462w         0         0         0         0  
      65  hru65                   65      17.24750      39.37217      -0.33376       0.18524        65       s39280n462w         0         0         0         0  
      66  hru66                   66       1.00500      39.36592      -0.33024       0.45274        66       s39280n462w         0         0         0         0  
      67  hru67                   67       1.49750      39.36439      -0.33705       0.00000        67       s39280n462w         0         0         0         0  
      68  hru68                   68      18.59000      39.36396      -0.33824       0.00000        68       s39280n462w         0         0         0         0  
      69  hru69                   69      28.19750      39.36420      -0.33559      -0.00053        69       s39280n462w         0         0         0         0  
      70  hru70                   70       0.23500      39.36010      -0.33632       0.00000        70       s39280n462w         0         0         0         0  
      71  hru71                   71      37.79750      39.36432      -0.33214       0.00060        71       s39280n462w         0         0         0         0  
      72  hru72                   72       0.67000      39.36186      -0.32943       0.61194        72       s39280n462w         0         0         0         0  
      73  hru73                   73      37.12250      39.36867      -0.33013       0.34359        73       s39280n462w         0         0         0         0  
      74  hru74                   74       0.63500      39.35893      -0.32927       0.25984        74       s39280n462w         0         0         0         0  
      75  hru75                   75       0.02250      39.38546      -0.33753       0.00000        75       s39280n462w         0         0         0         0  
      76  hru76                   76       2.91250      39.42268      -0.35157       1.12876        76       s39280n462w         0         0         0         0  
      77  hru77                   77       0.14500      39.35908      -0.33615       0.00000        77       s39280n462w         0         0         0         0  
