ptf ~
calibration.cal: written by SWAT+ Toolbox
5
cal_parm    chg_typ     chg_val                   conds       soil_lyr1   soil_lyr2   yr1         yr2         day1        day2        obj_tot    
cn2         pctchg       ~   cn2               ~  0           0           0           0           0           0           0           0          
awc         pctchg       ~   awc               ~  0           0           0           0           0           0           0           0          
surlag      absval       ~   surlag            ~  0           0           0           0           0           0           0           0          
alpha       absval       ~   alpha             ~  0           0           0           0           0           0           0           0          
esco        absval       ~   esco              ~  0           0           0           0           0           0           0           0          