time.sim: written by SWAT+ Toolbox v1.1
day_start  yrc_start   day_end   yrc_end      step  
        1      2010         365      2023         0  

