tmp.cli: Temperature file names - file written by SWAT+ editor 2024-05-20 13:16:23.589385
filename
Pipa_TMP.tmp
