topography.hyd: written by SWAT+ editor v2.3.3 on 2024-03-26 16:27 for SWAT+ rev.60.5.7
name                       slp       slp_len       lat_len      dist_cha         depos  
topohru01              0.00737     121.00000     121.00000     121.00000       0.00000  
topohru02              0.00012     121.00000     121.00000     121.00000       0.00000  
topohru03              0.01392      90.00000      90.00000     121.00000       0.00000  
topohru04              0.00040     121.00000     121.00000     121.00000       0.00000  
topohru05              0.00396     121.00000     121.00000     121.00000       0.00000  
topohru06              0.00018     121.00000     121.00000     121.00000       0.00000  
topohru07              0.00071     121.00000     121.00000     121.00000       0.00000  
topohru08              0.00523     121.00000     121.00000     121.00000       0.00000  
topohru09              0.00853     121.00000     121.00000     121.00000       0.00000  
topohru10              0.01276      90.00000      90.00000     121.00000       0.00000  
topohru11              0.00037     121.00000     121.00000     121.00000       0.00000  
topohru12              0.00074     121.00000     121.00000     121.00000       0.00000  
topohru13              0.00319     121.00000     121.00000     121.00000       0.00000  
topohru14              0.00073     121.00000     121.00000     121.00000       0.00000  
topohru15              0.00406     121.00000     121.00000     121.00000       0.00000  
topohru16              0.00074     121.00000     121.00000     121.00000       0.00000  
topohru17              0.00065     121.00000     121.00000     121.00000       0.00000  
topohru18              0.00071     121.00000     121.00000     121.00000       0.00000  
topohru19              0.00807     121.00000     121.00000     121.00000       0.00000  
topohru20              0.02685      90.00000      90.00000     121.00000       0.00000  
topohru21              0.00076     121.00000     121.00000     121.00000       0.00000  
topohru22              0.02374      90.00000      90.00000     121.00000       0.00000  
topohru23              0.00472     121.00000     121.00000     121.00000       0.00000  
topohru24              0.00067     121.00000     121.00000     121.00000       0.00000  
topohru25              0.00065     121.00000     121.00000     121.00000       0.00000  
topohru26              0.00712     121.00000     121.00000     121.00000       0.00000  
topohru27              0.01849      90.00000      90.00000     121.00000       0.00000  
topohru28              0.00072     121.00000     121.00000     121.00000       0.00000  
topohru29              0.00059     121.00000     121.00000     121.00000       0.00000  
topohru30              0.00088     121.00000     121.00000     121.00000       0.00000  
topohru31              0.00069     121.00000     121.00000     121.00000       0.00000  
topohru32              0.00474     121.00000     121.00000     121.00000       0.00000  
topohru33              0.01459      90.00000      90.00000     121.00000       0.00000  
topohru34              0.02441      90.00000      90.00000     121.00000       0.00000  
topohru35              0.00069     121.00000     121.00000     121.00000       0.00000  
topohru36              0.00045     121.00000     121.00000     121.00000       0.00000  
topohru37              0.02706      90.00000      90.00000     121.00000       0.00000  
topohru38              0.00062     121.00000     121.00000     121.00000       0.00000  
topohru39              0.01333      90.00000      90.00000     121.00000       0.00000  
topohru40              0.00044     121.00000     121.00000     121.00000       0.00000  
topohru41              0.00038     121.00000     121.00000     121.00000       0.00000  
topohru42              0.03211      60.00000      60.00000     121.00000       0.00000  
topohru43              0.04019      60.00000      60.00000     121.00000       0.00000  
topohru44              0.00022     121.00000     121.00000     121.00000       0.00000  
topohru45              0.00000     121.00000     121.00000     121.00000       0.00000  
topohru46              0.00026     121.00000     121.00000     121.00000       0.00000  
topohru47              0.00000     121.00000     121.00000     121.00000       0.00000  
topohru48              0.00011     121.00000     121.00000     121.00000       0.00000  
topohru49              0.00130     121.00000     121.00000     121.00000       0.00000  
topohru50              0.00000     121.00000     121.00000     121.00000       0.00000  
topohru51              0.00000     121.00000     121.00000     121.00000       0.00000  
topohru52              0.00009     121.00000     121.00000     121.00000       0.00000  
topohru53              0.00000     121.00000     121.00000     121.00000       0.00000  
topohru54              0.03957      60.00000      60.00000     121.00000       0.00000  
topohru55              0.00014     121.00000     121.00000     121.00000       0.00000  
topohru56              0.03788      60.00000      60.00000     121.00000       0.00000  
topohru57              0.02817      90.00000      90.00000     121.00000       0.00000  
topohru58              0.00002     121.00000     121.00000     121.00000       0.00000  
topohru59              0.00214     121.00000     121.00000     121.00000       0.00000  
topohru60              0.00000     121.00000     121.00000     121.00000       0.00000  
topohru61              0.02234      90.00000      90.00000     121.00000       0.00000  
topohru62              0.00004     121.00000     121.00000     121.00000       0.00000  
topohru63              0.00269     121.00000     121.00000     121.00000       0.00000  
topohru64              0.00000     121.00000     121.00000     121.00000       0.00000  
topohru65              0.00039     121.00000     121.00000     121.00000       0.00000  
topohru66              0.05072      30.00000      30.00000     121.00000       0.00000  
topohru67              0.00000     121.00000     121.00000     121.00000       0.00000  
topohru68              0.00000     121.00000     121.00000     121.00000       0.00000  
topohru69              0.00000     121.00000     121.00000     121.00000       0.00000  
topohru70              0.00013     121.00000     121.00000     121.00000       0.00000  
topohru71              0.00002     121.00000     121.00000     121.00000       0.00000  
topohru72              0.04679      60.00000      60.00000     121.00000       0.00000  
topohru73              0.00031     121.00000     121.00000     121.00000       0.00000  
topohru74              0.02598      90.00000      90.00000     121.00000       0.00000  
topohru75              0.01373      90.00000      90.00000     121.00000       0.00000  
topohru76              0.00036     121.00000     121.00000     121.00000       0.00000  
topohru77              0.00834     121.00000     121.00000     121.00000       0.00000  
toportu010             0.00012     121.00000     121.00000     121.00000       0.00000  
toportu020             0.01373     121.00000     121.00000     121.00000       0.00000  
toportu030             0.04019     121.00000     121.00000     121.00000       0.00000  
toportu040             0.02685     121.00000     121.00000     121.00000       0.00000  
toportu050             0.00071     121.00000     121.00000     121.00000       0.00000  
toportu060             0.00074     121.00000     121.00000     121.00000       0.00000  
toportu070             0.00073     121.00000     121.00000     121.00000       0.00000  
toportu080             0.00074     121.00000     121.00000     121.00000       0.00000  
toportu090             0.00071     121.00000     121.00000     121.00000       0.00000  
toportu100             0.00076     121.00000     121.00000     121.00000       0.00000  
toportu110             0.00067     121.00000     121.00000     121.00000       0.00000  
toportu120             0.00040     121.00000     121.00000     121.00000       0.00000  
toportu130             0.00038     121.00000     121.00000     121.00000       0.00000  
toportu140             0.00014     121.00000     121.00000     121.00000       0.00000  
toportu150             0.00039     121.00000     121.00000     121.00000       0.00000  
toportu160             0.00002     121.00000     121.00000     121.00000       0.00000  
toportu170             0.00069     121.00000     121.00000     121.00000       0.00000  
toportu180             0.00059     121.00000     121.00000     121.00000       0.00000  
toportu190             0.00045     121.00000     121.00000     121.00000       0.00000  
toportu200             0.00026     121.00000     121.00000     121.00000       0.00000  
toportu210             0.00062     121.00000     121.00000     121.00000       0.00000  
toportu220             0.00011     121.00000     121.00000     121.00000       0.00000  
toportu230             0.00002     121.00000     121.00000     121.00000       0.00000  
toportu240             0.00004     121.00000     121.00000     121.00000       0.00000  
toportu250             0.00022     121.00000     121.00000     121.00000       0.00000  
toportu260             0.00000     121.00000     121.00000     121.00000       0.00000  
toportu270             0.00000     121.00000     121.00000     121.00000       0.00000  
toportu280             0.00065     121.00000     121.00000     121.00000       0.00000  
toportu290             0.00072     121.00000     121.00000     121.00000       0.00000  
toportu300             0.00009     121.00000     121.00000     121.00000       0.00000  
toportu310             0.00000     121.00000     121.00000     121.00000       0.00000  
toportu320             0.00000     121.00000     121.00000     121.00000       0.00000  
toportu330             0.00000     121.00000     121.00000     121.00000       0.00000  
toportu340             0.00018     121.00000     121.00000     121.00000       0.00000  
toportu350             0.01392     121.00000     121.00000     121.00000       0.00000  
toportu360             0.01333     121.00000     121.00000     121.00000       0.00000  
toportu370             0.00523     121.00000     121.00000     121.00000       0.00000  
toportu380             0.00737     121.00000     121.00000     121.00000       0.00000  
toportu390             0.00474     121.00000     121.00000     121.00000       0.00000  
toportu400             0.00065     121.00000     121.00000     121.00000       0.00000  
toportu410             0.00319     121.00000     121.00000     121.00000       0.00000  
toportu420             0.00406     121.00000     121.00000     121.00000       0.00000  
toportu430             0.00037     121.00000     121.00000     121.00000       0.00000  
toportu440             0.00396     121.00000     121.00000     121.00000       0.00000  
toportu450             0.00036     121.00000     121.00000     121.00000       0.00000  
toportu460             0.01276     121.00000     121.00000     121.00000       0.00000  
toportu470             0.00853     121.00000     121.00000     121.00000       0.00000  
toportu480             0.03211     121.00000     121.00000     121.00000       0.00000  
toportu490             0.03957     121.00000     121.00000     121.00000       0.00000  
toportu500             0.03788     121.00000     121.00000     121.00000       0.00000  
toportu510             0.02817     121.00000     121.00000     121.00000       0.00000  
toportu520             0.02234     121.00000     121.00000     121.00000       0.00000  
toportu530             0.00214     121.00000     121.00000     121.00000       0.00000  
toportu540             0.00000     121.00000     121.00000     121.00000       0.00000  
toportu550             0.00130     121.00000     121.00000     121.00000       0.00000  
toportu560             0.00088     121.00000     121.00000     121.00000       0.00000  
toportu570             0.00000     121.00000     121.00000     121.00000       0.00000  
toportu580             0.00069     121.00000     121.00000     121.00000       0.00000  
toportu590             0.00712     121.00000     121.00000     121.00000       0.00000  
toportu600             0.01849     121.00000     121.00000     121.00000       0.00000  
toportu610             0.00472     121.00000     121.00000     121.00000       0.00000  
toportu620             0.02374     121.00000     121.00000     121.00000       0.00000  
toportu630             0.00044     121.00000     121.00000     121.00000       0.00000  
toportu640             0.00807     121.00000     121.00000     121.00000       0.00000  
toportu650             0.02441     121.00000     121.00000     121.00000       0.00000  
toportu660             0.01459     121.00000     121.00000     121.00000       0.00000  
toportu670             0.02706     121.00000     121.00000     121.00000       0.00000  
toportu680             0.00000     121.00000     121.00000     121.00000       0.00000  
toportu690             0.00000     121.00000     121.00000     121.00000       0.00000  
toportu700             0.00269     121.00000     121.00000     121.00000       0.00000  
toportu710             0.00000     121.00000     121.00000     121.00000       0.00000  
toportu720             0.00013     121.00000     121.00000     121.00000       0.00000  
toportu730             0.00834     121.00000     121.00000     121.00000       0.00000  
toportu740             0.05072     121.00000     121.00000     121.00000       0.00000  
toportu750             0.00031     121.00000     121.00000     121.00000       0.00000  
toportu760             0.04679     121.00000     121.00000     121.00000       0.00000  
toportu770             0.02598     121.00000     121.00000     121.00000       0.00000  
