plant.ini: written by SWAT+ editor v2.3.3 on 2024-03-21 12:45 for SWAT+ rev.60.5.7
pcom_name          plt_cnt  rot_yr_ini          plt_name     lc_status      lai_init       bm_init      phu_init      plnt_pop      yrs_init      rsd_init  
rice120_comm             1         1  
                                                 rice120             n         0.000         0.000         0.000         0.000         0.000    1000.00000  
rice140_comm             1         1  
                                                 rice140             n         0.000         0.000         0.000         0.000         0.000    1000.00000  
wetm_comm                1         1  
                                                    wetm             y       2.00000   50000.00000       0.00000       0.00000       1.00000   10000.00000  
