wnd.cli: Wind speed file names - file written by SWAT+ editor 2024-05-20 13:16:23.648731
filename
Pipa_WND.wnd
