ls_unit.ele: written by SWAT+ editor v2.3.3 on 2023-12-13 20:04 for SWAT+ rev.60.5.7
      id  name                   obj_typ  obj_typ_no      bsn_frac      sub_frac      reg_frac  
       1  hru01                      hru           1     1.2405E-3       1.00000       0.00000  
       2  hru02                      hru           2     5.7014E-3       1.00000       0.00000  
       3  hru03                      hru           3     3.8825E-4       1.00000       0.00000  
       4  hru04                      hru           4     1.0450E-2       1.00000       0.00000  
       5  hru05                      hru           5     5.6102E-4       1.00000       0.00000  
       6  hru06                      hru           6     1.9348E-2       1.00000       0.00000  
       7  hru07                      hru           7     5.6626E-3       1.00000       0.00000  
       8  hru08                      hru           8     6.4158E-3       1.00000       0.00000  
       9  hru09                      hru           9     6.0062E-3       1.00000       0.00000  
      10  hru10                      hru          10     5.1016E-3       1.00000       0.00000  
      11  hru11                      hru          11     1.6695E-4       1.00000       0.00000  
      12  hru12                      hru          12     6.2314E-3       1.00000       0.00000  
      13  hru13                      hru          13     1.3783E-4       1.00000       0.00000  
      14  hru14                      hru          14     8.5628E-3       1.00000       0.00000  
      15  hru15                      hru          15     8.9297E-5       1.00000       0.00000  
      16  hru16                      hru          16     1.2657E-2       1.00000       0.00000  
      17  hru17                      hru          17     4.8725E-4       1.00000       0.00000  
      18  hru18                      hru          18     2.4128E-2       1.00000       0.00000  
      19  hru19                      hru          19     3.6262E-3       1.00000       0.00000  
      20  hru20                      hru          20     3.4554E-4       1.00000       0.00000  
      21  hru21                      hru          21     2.2693E-3       1.00000       0.00000  
      22  hru22                      hru          22     5.3734E-3       1.00000       0.00000  
      23  hru23                      hru          23     3.8010E-3       1.00000       0.00000  
      24  hru24                      hru          24     6.3795E-2       1.00000       0.00000  
      25  hru25                      hru          25     3.9108E-2       1.00000       0.00000  
      26  hru26                      hru          26     9.9780E-4       1.00000       0.00000  
      27  hru27                      hru          27     3.1060E-5       1.00000       0.00000  
      28  hru28                      hru          28     1.0978E-2       1.00000       0.00000  
      29  hru29                      hru          29     8.9233E-2       1.00000       0.00000  
      30  hru30                      hru          30     2.0072E-3       1.00000       0.00000  
      31  hru31                      hru          31     4.8533E-2       1.00000       0.00000  
      32  hru32                      hru          32     2.5236E-5       1.00000       0.00000  
      33  hru33                      hru          33     1.9645E-3       1.00000       0.00000  
      34  hru34                      hru          34     1.2967E-3       1.00000       0.00000  
      35  hru35                      hru          35     2.7993E-3       1.00000       0.00000  
      36  hru36                      hru          36     3.6379E-3       1.00000       0.00000  
      37  hru37                      hru          37     3.4729E-3       1.00000       0.00000  
      38  hru38                      hru          38     1.1625E-1       1.00000       0.00000  
      39  hru39                      hru          39     8.2309E-4       1.00000       0.00000  
      40  hru40                      hru          40     1.4557E-1       1.00000       0.00000  
      41  hru41                      hru          41     3.1326E-2       1.00000       0.00000  
      42  hru42                      hru          42     1.2909E-3       1.00000       0.00000  
      43  hru43                      hru          43     8.4250E-4       1.00000       0.00000  
      44  hru44                      hru          44     1.7374E-2       1.00000       0.00000  
      45  hru45                      hru          45     4.2707E-5       1.00000       0.00000  
      46  hru46                      hru          46     3.4284E-2       1.00000       0.00000  
      47  hru47                      hru          47     4.4260E-4       1.00000       0.00000  
      48  hru48                      hru          48     4.1504E-3       1.00000       0.00000  
      49  hru49                      hru          49     5.1249E-4       1.00000       0.00000  
      50  hru50                      hru          50     8.1552E-3       1.00000       0.00000  
      51  hru51                      hru          51     9.8615E-4       1.00000       0.00000  
      52  hru52                      hru          52     3.4009E-2       1.00000       0.00000  
      53  hru53                      hru          53     1.5375E-3       1.00000       0.00000  
      54  hru54                      hru          54     5.9208E-4       1.00000       0.00000  
      55  hru55                      hru          55     3.3075E-2       1.00000       0.00000  
      56  hru56                      hru          56     7.9979E-4       1.00000       0.00000  
      57  hru57                      hru          57     8.3279E-4       1.00000       0.00000  
      58  hru58                      hru          58     1.0054E-2       1.00000       0.00000  
      59  hru59                      hru          59     7.4155E-4       1.00000       0.00000  
      60  hru60                      hru          60     9.5296E-3       1.00000       0.00000  
      61  hru61                      hru          61     5.6296E-5       1.00000       0.00000  
      62  hru62                      hru          62     5.3559E-3       1.00000       0.00000  
      63  hru63                      hru          63     1.8655E-3       1.00000       0.00000  
      64  hru64                      hru          64     2.9441E-2       1.00000       0.00000  
      65  hru65                      hru          65     1.3393E-2       1.00000       0.00000  
      66  hru66                      hru          66     7.8038E-4       1.00000       0.00000  
      67  hru67                      hru          67     1.1628E-3       1.00000       0.00000  
      68  hru68                      hru          68     1.4435E-2       1.00000       0.00000  
      69  hru69                      hru          69     2.1895E-2       1.00000       0.00000  
      70  hru70                      hru          70     1.8248E-4       1.00000       0.00000  
      71  hru71                      hru          71     2.9350E-2       1.00000       0.00000  
      72  hru72                      hru          72     5.2025E-4       1.00000       0.00000  
      73  hru73                      hru          73     2.8826E-2       1.00000       0.00000  
      74  hru74                      hru          74     4.9308E-4       1.00000       0.00000  
      75  hru75                      hru          75     1.7471E-5       1.00000       0.00000  
      76  hru76                      hru          76     2.2615E-3       1.00000       0.00000  
      77  hru77                      hru          77     1.1259E-4       1.00000       0.00000  
