weather-wgn.cli: written by SWAT+ editor v2.3.3 on 2023-12-13 20:04 for SWAT+ rev.60.5.7
beni                           39.28063      -0.46187      48.00000        13  
 tmp_max_ave   tmp_min_ave    tmp_max_sd    tmp_min_sd       pcp_ave        pcp_sd      pcp_skew       wet_dry       wet_wet      pcp_days       pcp_hhr       slr_ave       dew_ave       wnd_ave  
    15.99920       7.89400       3.15350       3.06500      51.32170       6.39730       6.51590       0.21750       0.66900      12.34290      19.44390       8.88660       0.67290       3.91190  
    16.90740       8.29820       3.61730       3.06490      42.12830       5.55640       6.46930       0.22740       0.69950      12.17140      16.43430      11.99600       0.65190       3.80100  
    19.24390      10.06850       3.66230       2.77930      35.58290       4.58710       6.51920       0.21880       0.63120      11.54290      15.23050      16.59450       0.63550       3.61320  
    21.09730      11.99810       3.17960       2.28160      42.71170       4.91420       6.35420       0.26750       0.66090      13.22860      16.37340      20.86570       0.61300       3.40520  
    23.84210      15.27150       3.06450       2.39190      39.72260       4.68000       7.03660       0.29070       0.63770      13.80000      18.42830      24.00830       0.61270       3.01130  
    27.51650      19.29980       2.82840       2.10480      19.94260       3.93480      12.26010       0.19750       0.57100       9.45710      21.02150      26.91710       0.59240       2.85450  
    30.17960      21.94410       2.23270       1.76540       8.49310       2.08200      14.17300       0.16730       0.41740       6.91430      10.60620      27.17510       0.58110       2.85080  
    30.49210      22.47050       2.28850       1.66810      17.27460       2.96490      10.81680       0.22020       0.49850       9.45710      14.19910      23.21110       0.59810       2.80080  
    27.92330      19.69270       0.25850       2.23470      75.84030      10.83240       8.03790       0.25240       0.60920      11.77140      45.13740      18.47520       0.62820       2.80080  
    24.08340      15.79150       3.01600       2.56280      77.34340      11.09620       8.50580       0.30080       0.63470      14.00000      38.77630      13.31710       0.64350       3.10430  
    19.37970      11.40900       3.16490       3.06990      64.53740       8.83950       8.69450       0.24260       0.66360      12.57140      35.38500       9.25050       0.65980       3.56140  
    16.57260       8.77160       2.81810       3.05970      53.20830       6.81340       6.97520       0.22380       0.66820      12.48570      25.31970       7.70750       0.67020       3.93200  
