weather-sta.cli: written by SWAT+ editor v2.3.3 on 2023-12-13 20:04 for SWAT+ rev.60.5.7
name                           wgn                        pcp                        tmp                        slr                        hmd                        wnd           wnd_dir          atmo_dep  
s39280n462w                   beni               beni_PCP.pcp               beni_TMP.tmp               beni_SLR.slr               beni_HMD.hmd               beni_WND.wnd              null              null  
