pcp.cli: Precipitation file names - file written by SWAT+ editor 2023-12-13 17:15:14.027175
filename
beni_PCP.pcp
