rout_unit.def: written by SWAT+ editor v2.3.3 on 2023-12-13 20:04 for SWAT+ rev.60.5.7
      id              name  elem_tot  elements  
       1            rtu010         1         2  
       2            rtu020         1        75  
       3            rtu030         1        43  
       4            rtu040         1        20  
       5            rtu050         1         7  
       6            rtu060         1        12  
       7            rtu070         1        14  
       8            rtu080         1        16  
       9            rtu090         1        18  
      10            rtu100         1        21  
      11            rtu110         1        24  
      12            rtu120         1         4  
      13            rtu130         1        41  
      14            rtu140         1        55  
      15            rtu150         1        65  
      16            rtu160         1        71  
      17            rtu170         1        31  
      18            rtu180         1        29  
      19            rtu190         1        36  
      20            rtu200         1        46  
      21            rtu210         1        38  
      22            rtu220         1        48  
      23            rtu230         1        58  
      24            rtu240         1        62  
      25            rtu250         1        44  
      26            rtu260         1        50  
      27            rtu270         1        60  
      28            rtu280         1        25  
      29            rtu290         1        28  
      30            rtu300         1        52  
      31            rtu310         1        64  
      32            rtu320         1        68  
      33            rtu330         1        69  
      34            rtu340         1         6  
      35            rtu350         1         3  
      36            rtu360         1        39  
      37            rtu370         1         8  
      38            rtu380         1         1  
      39            rtu390         1        32  
      40            rtu400         1        17  
      41            rtu410         1        13  
      42            rtu420         1        15  
      43            rtu430         1        11  
      44            rtu440         1         5  
      45            rtu450         1        76  
      46            rtu460         1        10  
      47            rtu470         1         9  
      48            rtu480         1        42  
      49            rtu490         1        54  
      50            rtu500         1        56  
      51            rtu510         1        57  
      52            rtu520         1        61  
      53            rtu530         1        59  
      54            rtu540         1        51  
      55            rtu550         1        49  
      56            rtu560         1        30  
      57            rtu570         1        53  
      58            rtu580         1        35  
      59            rtu590         1        26  
      60            rtu600         1        27  
      61            rtu610         1        23  
      62            rtu620         1        22  
      63            rtu630         1        40  
      64            rtu640         1        19  
      65            rtu650         1        34  
      66            rtu660         1        33  
      67            rtu670         1        37  
      68            rtu680         1        45  
      69            rtu690         1        47  
      70            rtu700         1        63  
      71            rtu710         1        67  
      72            rtu720         1        70  
      73            rtu730         1        77  
      74            rtu740         1        66  
      75            rtu750         1        73  
      76            rtu760         1        72  
      77            rtu770         1        74  
