slr.cli: Solar radiation file names - file written by SWAT+ editor 2023-12-13 17:15:14.419666
filename
beni_SLR.slr
