time.sim: written by SWAT+ editor v2.3.3 on 2023-12-13 20:04 for SWAT+ rev.60.5.7
day_start  yrc_start   day_end   yrc_end      step  
       1      2015         365      2022         0  
