tmp.cli: Temperature file names - file written by SWAT+ editor 2023-12-13 17:15:14.489636
filename
beni_TMP.tmp
