aquifer.con: written by SWAT+ editor v2.2.0 on 2023-03-22 04:25 for SWAT+ rev.60.5.4
      id  name                gis_id          area           lat           lon          elev       aqu               wst       cst      ovfl      rule   out_tot       obj_typ    obj_id       hyd_typ          frac  
       1  aqu011                  11      38.70000      35.64206     127.38513     322.26395         1    s35610n127290e         0         0         0         2           sdc         8           tot       1.00000           aqu        21           rhg       1.00000  
       2  aqu012                  12    1682.55000      35.64206     127.38513     403.84761         2    s35610n127290e         0         0         0         2           aqu         1           tot       1.00000           aqu        21           rhg       1.00000  
       3  aqu021                  21     207.45000      35.59306     127.32004     187.84995         3    s35610n127290e         0         0         0         2           sdc         1           tot       1.00000           aqu        21           rhg       1.00000  
       4  aqu022                  22    3994.65000      35.59306     127.32004     236.63186         4    s35610n127290e         0         0         0         2           aqu         3           tot       1.00000           aqu        21           rhg       1.00000  
       5  aqu031                  31      34.92000      35.62158     127.38621     359.94028         5    s35610n127290e         0         0         0         2           sdc         8           tot       1.00000           aqu        21           rhg       1.00000  
       6  aqu032                  32    1515.24000      35.62158     127.38621     405.38976         6    s35610n127290e         0         0         0         2           aqu         5           tot       1.00000           aqu        21           rhg       1.00000  
       7  aqu041                  41      33.30000      35.60033     127.41804     200.44829         7    s35610n127290e         0         0         0         2           sdc        17           tot       1.00000           aqu        21           rhg       1.00000  
       8  aqu042                  42    1602.72000      35.60033     127.41804     340.70148         8    s35610n127290e         0         0         0         2           aqu         7           tot       1.00000           aqu        21           rhg       1.00000  
       9  aqu051                  51      30.87000      35.58788     127.38627     156.26440         9    s35610n127290e         0         0         0         2           sdc        12           tot       1.00000           aqu        21           rhg       1.00000  
      10  aqu052                  52     762.12000      35.58788     127.38627     227.45347        10    s35610n127290e         0         0         0         2           aqu         9           tot       1.00000           aqu        21           rhg       1.00000  
      11  aqu061                  61      45.45000      35.58532     127.35950     155.15935        11    s35610n127290e         0         0         0         2           sdc        11           tot       1.00000           aqu        21           rhg       1.00000  
      12  aqu062                  62    1373.67000      35.58532     127.35950     194.35982        12    s35610n127290e         0         0         0         2           aqu        11           tot       1.00000           aqu        21           rhg       1.00000  
      13  aqu071                  71      25.65000      35.57306     127.42855     225.09103        13    s35610n127290e         0         0         0         2           sdc        17           tot       1.00000           aqu        21           rhg       1.00000  
      14  aqu072                  72    1213.65000      35.57306     127.42855     329.55565        14    s35610n127290e         0         0         0         2           aqu        13           tot       1.00000           aqu        21           rhg       1.00000  
      15  aqu081                  81      88.47000      35.55479     127.34387     129.88995        15    s35610n127290e         0         0         0         2           sdc         1           tot       1.00000           aqu        21           rhg       1.00000  
      16  aqu082                  82    1661.76000      35.55479     127.34387     167.42104        16    s35610n127290e         0         0         0         2           aqu        15           tot       1.00000           aqu        21           rhg       1.00000  
      17  aqu091                  91      24.30000      35.55749     127.39198     146.49968        17    s35610n127290e         0         0         0         2           sdc        11           tot       1.00000           aqu        21           rhg       1.00000  
      18  aqu092                  92    1132.38000      35.55749     127.39198     190.38031        18    s35610n127290e         0         0         0         2           aqu        17           tot       1.00000           aqu        21           rhg       1.00000  
      19  aqu101                 101      71.37000      35.52340     127.32974     115.00000        19    s35610n127290e         0         0         0         1           aqu        21           rhg       1.00000  
      20  aqu102                 102     546.30000      35.52340     127.32974     139.21186        20    s35610n127290e         0         0         0         2           aqu        19           tot       1.00000           aqu        21           rhg       1.00000  
      21  aqu_deep010             10   16085.52000      35.58992     127.36659     267.74433        21    s35610n127290e         0         0         0         0  
