chandeg.con: written by SWAT+ editor v2.2.0 on 2023-03-22 04:25 for SWAT+ rev.60.5.4
      id  name                gis_id          area           lat           lon          elev      lcha               wst       cst      ovfl      rule   out_tot       obj_typ    obj_id       hyd_typ          frac  
       1  cha01                    1   16070.40000      35.52632     127.32895             0         1    s35610n127290e         0         0         0         0  
       2  cha03                    3    7473.51040      35.54168     127.32207             0         2    s35610n127290e         0         0         0         1           sdc         1           tot       1.00000  
       3  cha04                    4    6767.72960      35.55442     127.31128             0         3    s35610n127290e         0         0         0         1           sdc         2           tot       1.00000  
       4  cha05                    5    6374.34000      35.56254     127.30991             0         4    s35610n127290e         0         0         0         1           sdc         3           tot       1.00000  
       5  cha06                    6    6123.69000      35.57577     127.31484             0         5    s35610n127290e         0         0         0         1           sdc         4           tot       1.00000  
       6  cha08                    8    5119.92000      35.60594     127.32458             0         6    s35610n127290e         0         0         0         1           sdc         5           tot       1.00000  
       7  cha09                    9    7994.34000      35.54524     127.33143             0         7    s35610n127290e         0         0         0         1           sdc         1           tot       1.00000  
       8  cha12                   12    4304.43000      35.62311     127.32070             0         8    s35610n127290e         0         0         0         1           sdc         6           tot       1.00000  
       9  cha13                   13    7326.27040      35.55314     127.33551             0         9    s35610n127290e         0         0         0         1           sdc         7           tot       1.00000  
      10  cha15                   15    7165.44000      35.55271     127.34279             0        10    s35610n127290e         0         0         0         1           sdc         9           tot       1.00000  
      11  cha16                   16    6543.09000      35.55623     127.35476             0        11    s35610n127290e         0         0         0         1           sdc        10           tot       1.00000  
      12  cha19                   19    5087.43000      35.56859     127.36818             0        12    s35610n127290e         0         0         0         1           sdc        11           tot       1.00000  
      13  cha20                   20    1550.16000      35.62488     127.35237             0        13    s35610n127290e         0         0         0         1           sdc         8           tot       1.00000  
      14  cha23                   23    1142.01000      35.62457     127.36669             0        14    s35610n127290e         0         0         0         1           sdc        13           tot       1.00000  
      15  cha24                   24    3644.64000      35.57572     127.37896             0        15    s35610n127290e         0         0         0         1           sdc        12           tot       1.00000  
      16  cha25                   25    3362.49000      35.58618     127.38481             0        16    s35610n127290e         0         0         0         1           sdc        15           tot       1.00000  
      17  cha26                   26    3003.57000      35.58029     127.38780             0        17    s35610n127290e         0         0         0         1           sdc        16           tot       1.00000  
      18  cha27                   27    1721.25000      35.63285     127.35423             0        18    s35610n127290e         0         0         0         1           sdc         8           tot       1.00000  
      19  cha29                   29    1156.68000      35.55927     127.36689             0        19    s35610n127290e         0         0         0         1           sdc        11           tot       1.00000  
      20  cha30                   30    1636.02000      35.58818     127.39475             0        20    s35610n127290e         0         0         0         1           sdc        17           tot       1.00000  
      21  cha31                   31    1097.19000      35.63997     127.37032             0        21    s35610n127290e         0         0         0         1           sdc        18           tot       1.00000  
      22  cha32                   32    1239.30000      35.58099     127.40158             0        22    s35610n127290e         0         0         0         1           sdc        17           tot       1.00000  
      23  cha33                   33    1441.26000      35.58958     127.40046             0        23    s35610n127290e         0         0         0         1           sdc        20           tot       1.00000  
      24  cha35                   35    1227.87000      35.59442     127.40711             0        24    s35610n127290e         0         0         0         1           sdc        23           tot       1.00000  
      25  cha36                   36     955.17000      35.62533     127.38168             0        25    s35610n127290e         0         0         0         1           sdc        14           tot       1.00000  
      26  cha37                   37     938.34000      35.57926     127.37046             0        26    s35610n127290e         0         0         0         1           sdc        12           tot       1.00000  
      27  cha38                   38    1019.79000      35.59386     127.41257             0        27    s35610n127290e         0         0         0         1           sdc        24           tot       1.00000  
      28  cha40                   40    1044.18000      35.57575     127.41090             0        28    s35610n127290e         0         0         0         1           sdc        22           tot       1.00000  
      29  cha41                   41     614.79000      35.58225     127.36559             0        29    s35610n127290e         0         0         0         1           sdc        26           tot       1.00000  
      30  cha42                   42     419.58000      35.55051     127.30544             0        30    s35610n127290e         0         0         0         1           sdc         2           tot       1.00000  
      31  cha43                   43     586.17000      35.59816     127.42012             0        31    s35610n127290e         0         0         0         1           sdc        27           tot       1.00000  
      32  cha44                   44     323.37000      35.56917     127.35585             0        32    s35610n127290e         0         0         0         1           sdc        12           tot       1.00000  
      33  cha45                   45     588.78000      35.57395     127.42512             0        33    s35610n127290e         0         0         0         1           sdc        28           tot       1.00000  
      34  cha46                   46     117.18000      35.53246     127.33162             0        34    s35610n127290e         0         0         0         1           sdc         1           tot       1.00000  
      35  cha47                   47     110.25000      35.54192     127.33332             0        35    s35610n127290e         0         0         0         1           sdc         7           tot       1.00000  
      36  cha48                   48     410.85000      35.54699     127.35815             0        36    s35610n127290e         0         0         0         1           sdc        10           tot       1.00000  
      37  cha51                   51     294.48000      35.55589     127.36663             0        37    s35610n127290e         0         0         0         1           sdc        19           tot       1.00000  
      38  cha52                   52     286.92000      35.55893     127.38865             0        38    s35610n127290e         0         0         0         1           sdc        19           tot       1.00000  
      39  cha55                   55     426.60000      35.56146     127.39875             0        39    s35610n127290e         0         0         0         1           sdc        19           tot       1.00000  
      40  cha57                   57     266.22000      35.56880     127.42675             0        40    s35610n127290e         0         0         0         1           sdc        28           tot       1.00000  
      41  cha60                   60     147.06000      35.57377     127.43571             0        41    s35610n127290e         0         0         0         1           sdc        33           tot       1.00000  
      42  cha61                   61     116.01000      35.57079     127.35693             0        42    s35610n127290e         0         0         0         1           sdc        32           tot       1.00000  
      43  cha63                   63     113.85000      35.57760     127.38477             0        43    s35610n127290e         0         0         0         1           sdc        15           tot       1.00000  
      44  cha64                   64     157.41000      35.57675     127.43540             0        44    s35610n127290e         0         0         0         1           sdc        33           tot       1.00000  
      45  cha65                   65     250.11000      35.57443     127.31161             0        45    s35610n127290e         0         0         0         1           sdc         5           tot       1.00000  
      46  cha68                   68     222.57000      35.59032     127.41942             0        46    s35610n127290e         0         0         0         1           sdc        27           tot       1.00000  
      47  cha71                   71     230.58000      35.58890     127.35917             0        47    s35610n127290e         0         0         0         1           sdc        29           tot       1.00000  
      48  cha72                   72     299.25000      35.59670     127.32394             0        48    s35610n127290e         0         0         0         1           sdc         5           tot       1.00000  
      49  cha73                   73     275.31000      35.58945     127.35486             0        49    s35610n127290e         0         0         0         1           sdc        29           tot       1.00000  
      50  cha76                   76     180.27000      35.60016     127.42758             0        50    s35610n127290e         0         0         0         1           sdc        31           tot       1.00000  
      51  cha80                   80     267.66000      35.60503     127.42843             0        51    s35610n127290e         0         0         0         1           sdc        31           tot       1.00000  
      52  cha82                   82     213.03000      35.61755     127.36194             0        52    s35610n127290e         0         0         0         1           sdc        13           tot       1.00000  
      53  cha83                   83     524.79000      35.62227     127.40816             0        53    s35610n127290e         0         0         0         1           sdc        25           tot       1.00000  
      54  cha86                   86     107.82000      35.62610     127.39526             0        54    s35610n127290e         0         0         0         1           sdc        25           tot       1.00000  
      55  cha87                   87     689.67000      35.63798     127.39814             0        55    s35610n127290e         0         0         0         1           sdc        21           tot       1.00000  
      56  cha88                   88     239.85000      35.64520     127.38343             0        56    s35610n127290e         0         0         0         1           sdc        21           tot       1.00000  
      57  cha90                   90     421.92000      35.64566     127.36588             0        57    s35610n127290e         0         0         0         1           sdc        18           tot       1.00000  
