rout_unit.con: written by SWAT+ editor v2.2.0 on 2023-03-22 04:25 for SWAT+ rev.60.5.4
      id  name                gis_id          area           lat           lon          elev       rtu               wst       cst      ovfl      rule   out_tot       obj_typ    obj_id       hyd_typ          frac  
       1  rtu011                  11      70.56000      35.52014     127.32787     113.51276         1    s35610n127290e         0         0         0         2           sdc         1           tot       1.00000           aqu        19           rhg       1.00000  
       2  rtu012                  12     429.93000      35.52135     127.32732     139.44693         2    s35610n127290e         0         0         0         4           sdc         1           sur       0.86000            ru         1           sur       0.14000            ru         1           lat       1.00000           aqu        20           rhg       1.00000  
       3  rtu031                  31      37.89000      35.54257     127.32185     122.14252         3    s35610n127290e         0         0         0         2           sdc         2           tot       1.00000           aqu         3           rhg       1.00000  
       4  rtu032                  32     248.31000      35.54127     127.31760     156.03842         4    s35610n127290e         0         0         0         4           sdc         2           sur       0.87000            ru         3           sur       0.13000            ru         3           lat       1.00000           aqu         4           rhg       1.00000  
       5  rtu041                  41      12.15000      35.55442     127.31229     127.68889         5    s35610n127290e         0         0         0         2           sdc         3           tot       1.00000           aqu         3           rhg       1.00000  
       6  rtu042                  42     381.24000      35.56047     127.29794     232.53140         6    s35610n127290e         0         0         0         4           sdc         3           sur       0.97000            ru         5           sur       0.03000            ru         5           lat       1.00000           aqu         4           rhg       1.00000  
       7  rtu051                  51      18.99000      35.56040     127.31183     132.37441         7    s35610n127290e         0         0         0         2           sdc         4           tot       1.00000           aqu         3           rhg       1.00000  
       8  rtu052                  52     231.66000      35.56950     127.30211     259.71756         8    s35610n127290e         0         0         0         4           sdc         4           sur       0.92000            ru         7           sur       0.08000            ru         7           lat       1.00000           aqu         4           rhg       1.00000  
       9  rtu061                  61      48.60000      35.58177     127.31554     143.22407         9    s35610n127290e         0         0         0         2           sdc         5           tot       1.00000           aqu         3           rhg       1.00000  
      10  rtu062                  62     405.81000      35.58670     127.31635     208.13728        10    s35610n127290e         0         0         0         4           sdc         5           sur       0.89000            ru         9           sur       0.11000            ru         9           lat       1.00000           aqu         4           rhg       1.00000  
      11  rtu081                  81      28.08000      35.61151     127.32644     166.85256        11    s35610n127290e         0         0         0         2           sdc         6           tot       1.00000           aqu         3           rhg       1.00000  
      12  rtu082                  82     787.41000      35.61154     127.33589     241.56509        12    s35610n127290e         0         0         0         4           sdc         6           sur       0.97000            ru        11           sur       0.03000            ru        11           lat       1.00000           aqu         4           rhg       1.00000  
      13  rtu091                  91      35.01000      35.54611     127.33149     124.70951        13    s35610n127290e         0         0         0         2           sdc         7           tot       1.00000           aqu        15           rhg       1.00000  
      14  rtu092                  92     522.81000      35.56246     127.32791     188.73421        14    s35610n127290e         0         0         0         4           sdc         7           sur       0.94000            ru        13           sur       0.06000            ru        13           lat       1.00000           aqu        16           rhg       1.00000  
      15  rtu121                 121      47.34000      35.62821     127.33025     183.88593        15    s35610n127290e         0         0         0         2           sdc         8           tot       1.00000           aqu         3           rhg       1.00000  
      16  rtu122                 122     985.68000      35.63575     127.33290     264.73110        16    s35610n127290e         0         0         0         4           sdc         8           sur       0.95000            ru        15           sur       0.05000            ru        15           lat       1.00000           aqu         4           rhg       1.00000  
      17  rtu131                 131      10.44000      35.55191     127.33464     120.42241        17    s35610n127290e         0         0         0         2           sdc         9           tot       1.00000           aqu        15           rhg       1.00000  
      18  rtu132                 132     150.39000      35.55994     127.33567     158.37223        18    s35610n127290e         0         0         0         4           sdc         9           sur       0.94000            ru        17           sur       0.06000            ru        17           lat       1.00000           aqu        16           rhg       1.00000  
      19  rtu151                 151      20.34000      35.55246     127.34283     123.11947        19    s35610n127290e         0         0         0         2           sdc        10           tot       1.00000           aqu        15           rhg       1.00000  
      20  rtu152                 152     191.16000      35.55251     127.34487     136.32156        20    s35610n127290e         0         0         0         4           sdc        10           sur       0.90000            ru        19           sur       0.10000            ru        19           lat       1.00000           aqu        16           rhg       1.00000  
      21  rtu161                 161      15.30000      35.55524     127.35444     126.50588        21    s35610n127290e         0         0         0         2           sdc        11           tot       1.00000           aqu        15           rhg       1.00000  
      22  rtu162                 162     283.68000      35.56491     127.34793     162.57043        22    s35610n127290e         0         0         0         4           sdc        11           sur       0.95000            ru        21           sur       0.05000            ru        21           lat       1.00000           aqu        16           rhg       1.00000  
      23  rtu191                 191      23.31000      35.56709     127.36502     131.37452        23    s35610n127290e         0         0         0         2           sdc        12           tot       1.00000           aqu        11           rhg       1.00000  
      24  rtu192                 192     134.10000      35.56862     127.36727     143.72013        24    s35610n127290e         0         0         0         4           sdc        12           sur       0.85000            ru        23           sur       0.15000            ru        23           lat       1.00000           aqu        12           rhg       1.00000  
      25  rtu201                 201       8.10000      35.62376     127.35183     204.96667        25    s35610n127290e         0         0         0         2           sdc        13           tot       1.00000           aqu         5           rhg       1.00000  
      26  rtu202                 202     187.02000      35.62204     127.35338     265.35756        26    s35610n127290e         0         0         0         4           sdc        13           sur       0.96000            ru        25           sur       0.04000            ru        25           lat       1.00000           aqu         6           rhg       1.00000  
      27  rtu231                 231       4.95000      35.62407     127.36384     234.89091        27    s35610n127290e         0         0         0         2           sdc        14           tot       1.00000           aqu         5           rhg       1.00000  
      28  rtu232                 232     181.89000      35.62838     127.37077     314.84810        28    s35610n127290e         0         0         0         4           sdc        14           sur       0.97000            ru        27           sur       0.03000            ru        27           lat       1.00000           aqu         6           rhg       1.00000  
      29  rtu241                 241      11.25000      35.57589     127.37878     136.86400        29    s35610n127290e         0         0         0         2           sdc        15           tot       1.00000           aqu         9           rhg       1.00000  
      30  rtu242                 242     180.72000      35.57885     127.37979     152.05329        30    s35610n127290e         0         0         0         4           sdc        15           sur       0.94000            ru        29           sur       0.06000            ru        29           lat       1.00000           aqu        10           rhg       1.00000  
      31  rtu251                 251      12.87000      35.59168     127.38350     180.11189        31    s35610n127290e         0         0         0         2           sdc        16           tot       1.00000           aqu         9           rhg       1.00000  
      32  rtu252                 252     346.05000      35.60148     127.38491     314.55189        32    s35610n127290e         0         0         0         4           sdc        16           sur       0.96000            ru        31           sur       0.04000            ru        31           lat       1.00000           aqu        10           rhg       1.00000  
      33  rtu261                 261       6.12000      35.58135     127.38846     143.77941        33    s35610n127290e         0         0         0         2           sdc        17           tot       1.00000           aqu         9           rhg       1.00000  
      34  rtu262                 262     122.13000      35.57819     127.39512     155.60206        34    s35610n127290e         0         0         0         4           sdc        17           sur       0.95000            ru        33           sur       0.05000            ru        33           lat       1.00000           aqu        10           rhg       1.00000  
      35  rtu271                 271      10.89000      35.63298     127.35431     206.28926        35    s35610n127290e         0         0         0         2           sdc        18           tot       1.00000           aqu         1           rhg       1.00000  
      36  rtu272                 272     191.25000      35.63475     127.35550     260.09271        36    s35610n127290e         0         0         0         4           sdc        18           sur       0.95000            ru        35           sur       0.05000            ru        35           lat       1.00000           aqu         2           rhg       1.00000  
      37  rtu291                 291       8.73000      35.55971     127.36836     131.68041        37    s35610n127290e         0         0         0         2           sdc        19           tot       1.00000           aqu        17           rhg       1.00000  
      38  rtu292                 292     139.95000      35.56128     127.37220     141.11511        38    s35610n127290e         0         0         0         4           sdc        19           sur       0.94000            ru        37           sur       0.06000            ru        37           lat       1.00000           aqu        18           rhg       1.00000  
      39  rtu301                 301       6.03000      35.58769     127.39464     154.16418        39    s35610n127290e         0         0         0         2           sdc        20           tot       1.00000           aqu         7           rhg       1.00000  
      40  rtu302                 302     188.73000      35.59783     127.39307     291.17692        40    s35610n127290e         0         0         0         4           sdc        20           sur       0.97000            ru        39           sur       0.03000            ru        39           lat       1.00000           aqu         8           rhg       1.00000  
      41  rtu311                 311       7.65000      35.63995     127.37049     240.91765        41    s35610n127290e         0         0         0         2           sdc        21           tot       1.00000           aqu         1           rhg       1.00000  
      42  rtu312                 312     160.02000      35.64101     127.37268     322.04049        42    s35610n127290e         0         0         0         4           sdc        21           sur       0.95000            ru        41           sur       0.05000            ru        41           lat       1.00000           aqu         2           rhg       1.00000  
      43  rtu321                 321       7.20000      35.58157     127.39897     152.05000        43    s35610n127290e         0         0         0         2           sdc        22           tot       1.00000           aqu        13           rhg       1.00000  
      44  rtu322                 322     187.92000      35.58185     127.40914     194.25575        44    s35610n127290e         0         0         0         4           sdc        22           sur       0.96000            ru        43           sur       0.04000            ru        43           lat       1.00000           aqu        14           rhg       1.00000  
      45  rtu331                 331       3.06000      35.58906     127.39956     152.91176        45    s35610n127290e         0         0         0         2           sdc        23           tot       1.00000           aqu         7           rhg       1.00000  
      46  rtu332                 332     210.33000      35.59687     127.40142     239.04664        46    s35610n127290e         0         0         0         4           sdc        23           sur       0.99000            ru        45           sur       0.01000            ru        45           lat       1.00000           aqu         8           rhg       1.00000  
      47  rtu351                 351       7.56000      35.59480     127.40843     172.21429        47    s35610n127290e         0         0         0         2           sdc        24           tot       1.00000           aqu         7           rhg       1.00000  
      48  rtu352                 352     200.52000      35.60351     127.40761     315.25763        48    s35610n127290e         0         0         0         4           sdc        24           sur       0.96000            ru        47           sur       0.04000            ru        47           lat       1.00000           aqu         8           rhg       1.00000  
      49  rtu361                 361       9.45000      35.62381     127.38102     258.38095        49    s35610n127290e         0         0         0         2           sdc        25           tot       1.00000           aqu         5           rhg       1.00000  
      50  rtu362                 362     313.11000      35.62244     127.38150     371.98678        50    s35610n127290e         0         0         0         4           sdc        25           sur       0.97000            ru        49           sur       0.03000            ru        49           lat       1.00000           aqu         6           rhg       1.00000  
      51  rtu371                 371       6.03000      35.57915     127.37020     138.25373        51    s35610n127290e         0         0         0         2           sdc        26           tot       1.00000           aqu        11           rhg       1.00000  
      52  rtu372                 372     317.52000      35.58982     127.37220     182.83050        52    s35610n127290e         0         0         0         4           sdc        26           sur       0.98000            ru        51           sur       0.02000            ru        51           lat       1.00000           aqu        12           rhg       1.00000  
      53  rtu381                 381       2.79000      35.59419     127.41297     169.45161        53    s35610n127290e         0         0         0         2           sdc        27           tot       1.00000           aqu         7           rhg       1.00000  
      54  rtu382                 382     208.26000      35.60275     127.41738     300.51556        54    s35610n127290e         0         0         0         4           sdc        27           sur       0.99000            ru        53           sur       0.01000            ru        53           lat       1.00000           aqu         8           rhg       1.00000  
      55  rtu401                 401       4.59000      35.57395     127.41018     170.49020        55    s35610n127290e         0         0         0         2           sdc        28           tot       1.00000           aqu        13           rhg       1.00000  
      56  rtu402                 402     184.59000      35.56796     127.41665     255.39542        56    s35610n127290e         0         0         0         4           sdc        28           sur       0.98000            ru        55           sur       0.02000            ru        55           lat       1.00000           aqu        14           rhg       1.00000  
      57  rtu411                 411       3.24000      35.58195     127.36518     140.83333        57    s35610n127290e         0         0         0         2           sdc        29           tot       1.00000           aqu        11           rhg       1.00000  
      58  rtu412                 412     105.66000      35.58357     127.36380     154.62862        58    s35610n127290e         0         0         0         4           sdc        29           sur       0.97000            ru        57           sur       0.03000            ru        57           lat       1.00000           aqu        12           rhg       1.00000  
      59  rtu421                 421       7.65000      35.54843     127.30396     134.90588        59    s35610n127290e         0         0         0         2           sdc        30           tot       1.00000           aqu         3           rhg       1.00000  
      60  rtu422                 422     411.93000      35.54872     127.29431     219.20909        60    s35610n127290e         0         0         0         4           sdc        30           sur       0.98000            ru        59           sur       0.02000            ru        59           lat       1.00000           aqu         4           rhg       1.00000  
      61  rtu431                 431       3.51000      35.59907     127.42016     186.79487        61    s35610n127290e         0         0         0         2           sdc        31           tot       1.00000           aqu         7           rhg       1.00000  
      62  rtu432                 432     134.73000      35.60095     127.42296     249.38744        62    s35610n127290e         0         0         0         4           sdc        31           sur       0.97000            ru        61           sur       0.03000            ru        61           lat       1.00000           aqu         8           rhg       1.00000  
      63  rtu441                 441       4.86000      35.56891     127.35495     138.18519        63    s35610n127290e         0         0         0         2           sdc        32           tot       1.00000           aqu        11           rhg       1.00000  
      64  rtu442                 442     202.50000      35.57466     127.34894     194.50267        64    s35610n127290e         0         0         0         4           sdc        32           sur       0.98000            ru        63           sur       0.02000            ru        63           lat       1.00000           aqu        12           rhg       1.00000  
      65  rtu451                 451       4.32000      35.57557     127.42504     204.16667        65    s35610n127290e         0         0         0         2           sdc        33           tot       1.00000           aqu        13           rhg       1.00000  
      66  rtu452                 452     279.99000      35.57708     127.42897     269.65381        66    s35610n127290e         0         0         0         4           sdc        33           sur       0.98000            ru        65           sur       0.02000            ru        65           lat       1.00000           aqu        14           rhg       1.00000  
      67  rtu461                 461       0.81000      35.53380     127.33178     116.88889        67    s35610n127290e         0         0         0         2           sdc        34           tot       1.00000           aqu        19           rhg       1.00000  
      68  rtu462                 462     116.37000      35.53286     127.33979     138.34339        68    s35610n127290e         0         0         0         4           sdc        34           sur       0.99000            ru        67           sur       0.01000            ru        67           lat       1.00000           aqu        20           rhg       1.00000  
      69  rtu471                 471       1.26000      35.54190     127.33332     118.71429        69    s35610n127290e         0         0         0         2           sdc        35           tot       1.00000           aqu        15           rhg       1.00000  
      70  rtu472                 472     108.99000      35.53967     127.34194     142.08175        70    s35610n127290e         0         0         0         4           sdc        35           sur       0.99000            ru        69           sur       0.01000            ru        69           lat       1.00000           aqu        16           rhg       1.00000  
      71  rtu481                 481       6.12000      35.54561     127.35847     131.50000        71    s35610n127290e         0         0         0         2           sdc        36           tot       1.00000           aqu        15           rhg       1.00000  
      72  rtu482                 482     404.73000      35.54210     127.36552     168.16433        72    s35610n127290e         0         0         0         4           sdc        36           sur       0.99000            ru        71           sur       0.01000            ru        71           lat       1.00000           aqu        16           rhg       1.00000  
      73  rtu511                 511       2.25000      35.55586     127.36675     131.52000        73    s35610n127290e         0         0         0         2           sdc        37           tot       1.00000           aqu        17           rhg       1.00000  
      74  rtu512                 512     292.23000      35.55177     127.37607     177.62642        74    s35610n127290e         0         0         0         4           sdc        37           sur       0.99000            ru        73           sur       0.01000            ru        73           lat       1.00000           aqu        18           rhg       1.00000  
      75  rtu521                 521       3.78000      35.55922     127.38919     142.80952        75    s35610n127290e         0         0         0         2           sdc        38           tot       1.00000           aqu        17           rhg       1.00000  
      76  rtu522                 522     283.14000      35.55522     127.39570     182.23458        76    s35610n127290e         0         0         0         4           sdc        38           sur       0.99000            ru        75           sur       0.01000            ru        75           lat       1.00000           aqu        18           rhg       1.00000  
      77  rtu551                 551       9.54000      35.56517     127.39942     159.32075        77    s35610n127290e         0         0         0         2           sdc        39           tot       1.00000           aqu        17           rhg       1.00000  
      78  rtu552                 552     417.06000      35.56153     127.40772     221.37851        78    s35610n127290e         0         0         0         4           sdc        39           sur       0.98000            ru        77           sur       0.02000            ru        77           lat       1.00000           aqu        18           rhg       1.00000  
      79  rtu571                 571       5.58000      35.56818     127.42612     232.12903        79    s35610n127290e         0         0         0         2           sdc        40           tot       1.00000           aqu        13           rhg       1.00000  
      80  rtu572                 572     260.64000      35.56280     127.43339     392.28729        80    s35610n127290e         0         0         0         4           sdc        40           sur       0.98000            ru        79           sur       0.02000            ru        79           lat       1.00000           aqu        14           rhg       1.00000  
      81  rtu601                 601       2.34000      35.57298     127.43535     260.26923        81    s35610n127290e         0         0         0         2           sdc        41           tot       1.00000           aqu        13           rhg       1.00000  
      82  rtu602                 602     144.72000      35.57127     127.44604     493.56405        82    s35610n127290e         0         0         0         4           sdc        41           sur       0.98000            ru        81           sur       0.02000            ru        81           lat       1.00000           aqu        14           rhg       1.00000  
      83  rtu611                 611       0.63000      35.57092     127.35703     136.14286        83    s35610n127290e         0         0         0         2           sdc        42           tot       1.00000           aqu        11           rhg       1.00000  
      84  rtu612                 612     115.38000      35.57776     127.35526     158.99688        84    s35610n127290e         0         0         0         4           sdc        42           sur       0.99000            ru        83           sur       0.01000            ru        83           lat       1.00000           aqu        12           rhg       1.00000  
      85  rtu631                 631       0.63000      35.57740     127.38486     139.00000        85    s35610n127290e         0         0         0         2           sdc        43           tot       1.00000           aqu         9           rhg       1.00000  
      86  rtu632                 632     113.22000      35.57237     127.39218     159.10095        86    s35610n127290e         0         0         0         4           sdc        43           sur       0.99000            ru        85           sur       0.01000            ru        85           lat       1.00000           aqu        10           rhg       1.00000  
      87  rtu641                 641       1.62000      35.57655     127.43556     249.94444        87    s35610n127290e         0         0         0         2           sdc        44           tot       1.00000           aqu        13           rhg       1.00000  
      88  rtu642                 642     155.79000      35.57976     127.44288     430.98094        88    s35610n127290e         0         0         0         4           sdc        44           sur       0.99000            ru        87           sur       0.01000            ru        87           lat       1.00000           aqu        14           rhg       1.00000  
      89  rtu651                 651       3.69000      35.57409     127.31098     138.02439        89    s35610n127290e         0         0         0         2           sdc        45           tot       1.00000           aqu         3           rhg       1.00000  
      90  rtu652                 652     246.42000      35.57999     127.30708     200.52484        90    s35610n127290e         0         0         0         4           sdc        45           sur       0.99000            ru        89           sur       0.01000            ru        89           lat       1.00000           aqu         4           rhg       1.00000  
      91  rtu681                 681       5.04000      35.58757     127.41953     202.32143        91    s35610n127290e         0         0         0         2           sdc        46           tot       1.00000           aqu         7           rhg       1.00000  
      92  rtu682                 682     217.53000      35.58895     127.42796     315.80348        92    s35610n127290e         0         0         0         4           sdc        46           sur       0.98000            ru        91           sur       0.02000            ru        91           lat       1.00000           aqu         8           rhg       1.00000  
      93  rtu711                 711       2.07000      35.58892     127.35870     151.08696        93    s35610n127290e         0         0         0         2           sdc        47           tot       1.00000           aqu        11           rhg       1.00000  