hmd.cli: Relative humidity file names - file written by SWAT+ editor 2023-12-13 17:15:13.982145
filename
beni_HMD.hmd
