irr.ops: written by SWAT+ editor v2.3.3 on 2023-12-12 17:58 for SWAT+ rev.60.5.7
       NAME IRR_AMT   IRR_EFF   SURQ_RTO   IRR_DEP   IRR_SALT   IRR_NO3N   IRR_PO4
       drip      50       0.9          0         0          0          0         0
  sprinkler      50       0.7        0.1         0          0          0         0
 subsurface      50         1          0       200          0          0         0
    surface      50       0.9        0.1         0          0          0         0
  ponding21     128         1        0.0         0        900          3       0.5
  ponding22     148         1        0.0         0        900          3       0.5
  ponding23      42         1        0.0         0        900          3       0.5
  ponding24      75         1        0.0         0        900          3       0.5
  ponding41     128         1        0.0         0        900          3       0.5
  ponding42     150         1        0.0         0        900          3       0.5
  ponding43      42         1        0.0         0        900          3       0.5
  ponding44      75         1        0.0         0        900          3       0.5
  ponding61     133         1        0.0         0        900          3       0.5
  ponding62     149         1        0.0         0        900          3       0.5
  ponding63      32         1        0.0         0        900          3       0.5
  ponding64      76         1        0.0         0        900          3       0.5
  ponding71     128         1        0.0         0        900          3       0.5
  ponding72     148         1        0.0         0        900          3       0.5
  ponding73      42         1        0.0         0        900          3       0.5
  ponding74      75         1        0.0         0        900          3       0.5
  ponding121    128         1        0.0         0        900          3       0.5
  ponding122    149         1        0.0         0        900          3       0.5
  ponding123     42         1        0.0         0        900          3       0.5
  ponding124     75         1        0.0         0        900          3       0.5
  ponding141    130         1        0.0         0        900          3       0.5
  ponding142    149         1        0.0         0        900          3       0.5
  ponding143     42         1        0.0         0        900          3       0.5
  ponding144     75         1        0.0         0        900          3       0.5
  ponding161    128         1        0.0         0        900          3       0.5
  ponding162    150         1        0.0         0        900          3       0.5
  ponding163     42         1        0.0         0        900          3       0.5
  ponding164     77         1        0.0         0        900          3       0.5
  ponding181    133         1        0.0         0        900          3       0.5
  ponding182    151         1        0.0         0        900          3       0.5
  ponding183     32         1        0.0         0        900          3       0.5
  ponding184     77         1        0.0         0        900          3       0.5
  ponding211    130         1        0.0         0        900          3       0.5
  ponding212    149         1        0.0         0        900          3       0.5
  ponding213     22         1        0.0         0        900          3       0.5
  ponding214     77         1        0.0         0        900          3       0.5
  ponding241    135         1        0.0         0        900          3       0.5
  ponding242    153         1        0.0         0        900          3       0.5
  ponding243     25         1        0.0         0        900          3       0.5
  ponding244     79         1        0.0         0        900          3       0.5
  ponding251    137         1        0.0         0        900          3       0.5
  ponding252    153         1        0.0         0        900          3       0.5
  ponding253     32         1        0.0         0        900          3       0.5
  ponding254     78         1        0.0         0        900          3       0.5
  ponding281    128         1        0.0         0        900          3       0.5
  ponding282    149         1        0.0         0        900          3       0.5
  ponding283     42         1        0.0         0        900          3       0.5
  ponding284     76         1        0.0         0        900          3       0.5
  ponding291    141         1        0.0         0        900          3       0.5
  ponding292    154         1        0.0         0        900          3       0.5
  ponding293     42         1        0.0         0        900          3       0.5
  ponding294     79         1        0.0         0        900          3       0.5
  ponding311    135         1        0.0         0        900          3       0.5
  ponding312    153         1        0.0         0        900          3       0.5
  ponding313     32         1        0.0         0        900          3       0.5
  ponding314     78         1        0.0         0        900          3       0.5
  ponding361    141         1        0.0         0        900          3       0.5
  ponding362    157         1        0.0         0        900          3       0.5
  ponding363     42         1        0.0         0        900          3       0.5
  ponding364     72         1        0.0         0        900          3       0.5
  ponding381    141         1        0.0         0        900          3       0.5
  ponding382    155         1        0.0         0        900          3       0.5
  ponding383     42         1        0.0         0        900          3       0.5
  ponding384     75         1        0.0         0        900          3       0.5
  ponding401    141         1        0.0         0        900          3       0.5
  ponding402    156         1        0.0         0        900          3       0.5
  ponding403     50         1        0.0         0        900          3       0.5
  ponding404     80         1        0.0         0        900          3       0.5
  ponding411    135         1        0.0         0        900          3       0.5
  ponding412    153         1        0.0         0        900          3       0.5
  ponding413     32         1        0.0         0        900          3       0.5
  ponding414     78         1        0.0         0        900          3       0.5
  ponding441    135         1        0.0         0        900          3       0.5
  ponding442    149         1        0.0         0        900          3       0.5
  ponding443     37         1        0.0         0        900          3       0.5
  ponding444     78         1        0.0         0        900          3       0.5
  ponding461    140         1        0.0         0        900          3       0.5
  ponding462    157         1        0.0         0        900          3       0.5
  ponding463     32         1        0.0         0        900          3       0.5
  ponding464     77         1        0.0         0        900          3       0.5
  ponding481    141         1        0.0         0        900          3       0.5
  ponding482    157         1        0.0         0        900          3       0.5
  ponding483     42         1        0.0         0        900          3       0.5
  ponding484     72         1        0.0         0        900          3       0.5
  ponding501    137         1        0.0         0        900          3       0.5
  ponding502    154         1        0.0         0        900          3       0.5
  ponding503     42         1        0.0         0        900          3       0.5
  ponding504     72         1        0.0         0        900          3       0.5
  ponding521    140         1        0.0         0        900          3       0.5
  ponding522    157         1        0.0         0        900          3       0.5
  ponding523     32         1        0.0         0        900          3       0.5
  ponding524     77         1        0.0         0        900          3       0.5
  ponding551    140         1        0.0         0        900          3       0.5
  ponding552    157         1        0.0         0        900          3       0.5
  ponding553     32         1        0.0         0        900          3       0.5
  ponding554     77         1        0.0         0        900          3       0.5
  ponding581    128         1        0.0         0        900          3       0.5
  ponding582    150         1        0.0         0        900          3       0.5
  ponding583     42         1        0.0         0        900          3       0.5
  ponding584     75         1        0.0         0        900          3       0.5
  ponding601    138         1        0.0         0        900          3       0.5
  ponding602    156         1        0.0         0        900          3       0.5
  ponding603     42         1        0.0         0        900          3       0.5
  ponding604     72         1        0.0         0        900          3       0.5
  ponding621    140         1        0.0         0        900          3       0.5
  ponding622    157         1        0.0         0        900          3       0.5
  ponding623     42         1        0.0         0        900          3       0.5
  ponding624     72         1        0.0         0        900          3       0.5
  ponding641    140         1        0.0         0        900          3       0.5
  ponding642    152         1        0.0         0        900          3       0.5
  ponding643     32         1        0.0         0        900          3       0.5
  ponding644     77         1        0.0         0        900          3       0.5
  ponding651    141         1        0.0         0        900          3       0.5
  ponding652    159         1        0.0         0        900          3       0.5
  ponding653     42         1        0.0         0        900          3       0.5
  ponding654     77         1        0.0         0        900          3       0.5
  ponding681    138         1        0.0         0        900          3       0.5
  ponding682    156         1        0.0         0        900          3       0.5
  ponding683     42         1        0.0         0        900          3       0.5
  ponding684     77         1        0.0         0        900          3       0.5
  ponding691    140         1        0.0         0        900          3       0.5
  ponding692    160         1        0.0         0        900          3       0.5
  ponding693     32         1        0.0         0        900          3       0.5
  ponding694     77         1        0.0         0        900          3       0.5
  ponding711    143         1        0.0         0        900          3       0.5
  ponding712    152         1        0.0         0        900          3       0.5
  ponding713     32         1        0.0         0        900          3       0.5
  ponding714     77         1        0.0         0        900          3       0.5
  ponding731    133         1        0.0         0        900          3       0.5
  ponding732    149         1        0.0         0        900          3       0.5
  ponding733     32         1        0.0         0        900          3       0.5
  ponding734     79         1        0.0         0        900          3       0.5
  ponding761    130         1        0.0         0        900          3       0.5
  ponding762    149         1        0.0         0        900          3       0.5
  ponding763     22         1        0.0         0        900          3       0.5
  ponding764     77         1        0.0         0        900          3       0.5
ponding_off       0         1        0.1         0          0          0       0  
