ls_unit.def: written by SWAT+ editor v2.3.3 on 2023-12-13 20:04 for SWAT+ rev.60.5.7
77
      id              name          area  elem_tot  elements  
       1            rtu010       7.34250         1         2  
       2            rtu020       0.02250         1        75  
       3            rtu030       1.08500         1        43  
       4            rtu040       0.44500         1        20  
       5            rtu050       7.29250         1         7  
       6            rtu060       8.02500         1        12  
       7            rtu070      11.02750         1        14  
       8            rtu080      16.30000         1        16  
       9            rtu090      31.07250         1        18  
      10            rtu100       2.92250         1        21  
      11            rtu110      82.15750         1        24  
      12            rtu120      13.45750         1         4  
      13            rtu130      40.34250         1        41  
      14            rtu140      42.59500         1        55  
      15            rtu150      17.24750         1        65  
      16            rtu160      37.79750         1        71  
      17            rtu170      62.50250         1        31  
      18            rtu180     114.91750         1        29  
      19            rtu190       4.68500         1        36  
      20            rtu200      44.15250         1        46  
      21            rtu210     149.70750         1        38  
      22            rtu220       5.34500         1        48  
      23            rtu230      12.94750         1        58  
      24            rtu240       6.89750         1        62  
      25            rtu250      22.37500         1        44  
      26            rtu260      10.50250         1        50  
      27            rtu270      12.27250         1        60  
      28            rtu280      50.36500         1        25  
      29            rtu290      14.13750         1        28  
      30            rtu300      43.79750         1        52  
      31            rtu310      37.91500         1        64  
      32            rtu320      18.59000         1        68  
      33            rtu330      28.19750         1        69  
      34            rtu340      24.91750         1         6  
      35            rtu350       0.50000         1         3  
      36            rtu360       1.06000         1        39  
      37            rtu370       8.26250         1         8  
      38            rtu380       1.59750         1         1  
      39            rtu390       0.03250         1        32  
      40            rtu400       0.62750         1        17  
      41            rtu410       0.17750         1        13  
      42            rtu420       0.11500         1        15  
      43            rtu430       0.21500         1        11  
      44            rtu440       0.72250         1         5  
      45            rtu450       2.91250         1        76  
      46            rtu460       6.57000         1        10  
      47            rtu470       7.73500         1         9  
      48            rtu480       1.66250         1        42  
      49            rtu490       0.76250         1        54  
      50            rtu500       1.03000         1        56  
      51            rtu510       1.07250         1        57  
      52            rtu520       0.07250         1        61  
      53            rtu530       0.95500         1        59  
      54            rtu540       1.27000         1        51  
      55            rtu550       0.66000         1        49  
      56            rtu560       2.58500         1        30  
      57            rtu570       1.98000         1        53  
      58            rtu580       3.60500         1        35  
      59            rtu590       1.28500         1        26  
      60            rtu600       0.04000         1        27  
      61            rtu610       4.89500         1        23  
      62            rtu620       6.92000         1        22  
      63            rtu630     187.47500         1        40  
      64            rtu640       4.67000         1        19  
      65            rtu650       1.67000         1        34  
      66            rtu660       2.53000         1        33  
      67            rtu670       4.47250         1        37  
      68            rtu680       0.05500         1        45  
      69            rtu690       0.57000         1        47  
      70            rtu700       2.40250         1        63  
      71            rtu710       1.49750         1        67  
      72            rtu720       0.23500         1        70  
      73            rtu730       0.14500         1        77  
      74            rtu740       1.00500         1        66  
      75            rtu750      37.12250         1        73  
      76            rtu760       0.67000         1        72  
      77            rtu770       0.63500         1        74  
