object.cnt: written by SWAT+ editor v2.3.3 on 2023-12-13 20:04 for SWAT+ rev.60.5.7
name                   ls_area      tot_area       obj       hru      lhru       rtu       mfl       aqu       cha       res       rec      exco       dlr       can       pmp       out      lcha     aqu2d       hrd       wro  
prueba              1287.83500    1287.83500       311        77         0        77         0        80         0         0         0         0         0         0         0         0        77         0         0         0  
