om_water.ini: written by SWAT+ editor v2.3.3 on 2023-12-13 20:04 for SWAT+ rev.60.5.7
name                       flo           sed          orgn          sedp           no3          solp         chl_a           nh3           no2       cbn_bod        dis_ox           san           sil           cla           sag           lag           grv           tmp             c  
no_init                0.00000       0.00000       0.00000       0.00000       0.00000       0.00000       0.00000       0.00000       0.00000       0.00000       0.00000       0.00000       0.00000       0.00000       0.00000       0.00000       0.00000       0.00000       0.00000  
