soils.sol: written by SWAT+ editor v2.3.3 on 2023-12-13 20:04 for SWAT+ rev.60.5.7
name                            nly           hyd_grp        dp_tot    anion_excl      perc_crk  texture                              dp            bd           awc        soil_k        carbon          clay          silt          sand          rock           alb        usle_k            ec         caco3            ph  
aqxe                              4                 D    1000.00000       0.50000       0.30000  LOAM_CLAY                  
                                                                                                                               300.00000       1.00000       0.10000       1.00000       3.90000      38.90000      47.00000      14.10000       0.70000       0.15000       0.25000      10.80000       0.00000       0.00000  
                                                                                                                               500.00000       1.00000       0.10000       1.00000       2.20000      47.30000      41.50000      11.20000       0.20000       0.00000       0.00000       1.50000       0.00000       0.00000  
                                                                                                                               600.00000       1.00000       0.10000       1.00000       2.40000      22.80000      26.90000      50.30000       1.30000       0.00000       0.00000       2.10000       0.00000       0.00000  
                                                                                                                              1000.00000       1.00000       0.10000       1.00000       1.50000      34.00000      47.00000      19.00000       0.00000       0.00000       0.00000       0.90000       0.00000       0.00000  
