chandeg.con: written by SWAT+ editor v3.0.0 on 2024-06-21 16:07 for SWAT+ rev.61.0
      id  name                gis_id          area           lat           lon          elev      lcha               wst       cst      ovfl      rule   out_tot       obj_typ    obj_id       hyd_typ          frac  
       1  cha001                   1    4123.30368      41.78680       2.64234             0         1      s41739n2694e         0         0         0         1           sdc        34           tot       1.00000  
       2  cha002                   2    1507.95177      41.77539       2.36520             0         2      s41748n2303e         0         0         0         1           sdc       119           tot       1.00000  
       3  cha003                   3   27297.43515      41.77968       2.67521             0         3      s41739n2694e         0         0         0         1           sdc        34           tot       1.00000  
       4  cha004                   4   13833.10741      41.78939       2.68628             0         4      s41739n2694e         0         0         0         1           sdc         3           tot       1.00000  
       5  cha005                   5   11514.18993      41.79741       2.69917             0         5      s41739n2694e         0         0         0         1           sdc         4           tot       1.00000  
       6  cha006                   6   11424.99119      41.80149       2.70713             0         6      s41739n2694e         0         0         0         1           sdc         5           tot       1.00000  
       7  cha007                   7    8015.09014      41.81354       2.71459             0         7      s41865n2664e         0         0         0         1           sdc        81           tot       1.00000  
       8  cha008                   8    7594.50156      41.85470       2.66565             0         8      s41865n2664e         0         0         0         1           sdc        99           tot       1.00000  
       9  cha009                   9    7460.54740      41.85941       2.65855             0         9      s41865n2664e         0         0         0         1           sdc         8           tot       1.00000  
      10  cha010                  10    5548.98538      41.86578       2.64557             0        10      s41865n2664e         0         0         0         1           sdc         9           tot       1.00000  
      11  cha011                  11   13350.34811      41.78929       2.68974             0        11      s41739n2694e         0         0         0         1           sdc         3           tot       1.00000  
      12  cha012                  12   10806.90449      41.79840       2.73330             0        12      s41739n2694e         0         0         0         1           sdc        97           tot       1.00000  
      13  cha013                  13    8298.60355      41.79953       2.73495             0        13      s41739n2694e         0         0         0         1           sdc        12           tot       1.00000  
      14  cha014                  14    6737.96897      41.80443       2.54049             0        14      s41840n2419e         0         0         0         1           sdc       102           tot       1.00000  
      15  cha015                  15    5360.97517      41.80269       2.74216             0        15      s41739n2694e         0         0         0         1           sdc        13           tot       1.00000  
      16  cha016                  16    1919.92635      41.77424       2.38830             0        16      s41840n2419e         0         0         0         1           sdc       119           tot       1.00000  
      17  cha017                  17    2506.80285      41.79337       2.74731             0        17      s41739n2694e         0         0         0         1           sdc        12           tot       1.00000  
      18  cha018                  18    1608.26134      41.79311       2.73483             0        18      s41739n2694e         0         0         0         1           sdc        97           tot       1.00000  
      19  cha019                  19    2195.32511      41.80932       2.66312             0        19      s41865n2664e         0         0         0         1           sdc         4           tot       1.00000  
      20  cha020                  20    1913.06010      41.81558       2.71789             0        20      s41865n2664e         0         0         0         1           sdc        81           tot       1.00000  
      21  cha021                  21    2191.33020      41.82244       2.53049             0        21      s41840n2419e         0         0         0         1           sdc       102           tot       1.00000  
      22  cha022                  22    2436.76717      41.81848       2.77076             0        22      s41885n2741e         0         0         0         1           sdc        72           tot       1.00000  
      23  cha023                  23    3242.61441      41.82126       2.46984             0        23      s41840n2419e         0         0         0         1           sdc        65           tot       1.00000  
      24  cha024                  24    5001.30889      41.86933       2.59630             0        24      s41865n2664e         0         0         0         1           sdc        10           tot       1.00000  
      25  cha025                  25    1910.31361      41.86840       2.65579             0        25      s41865n2664e         0         0         0         1           sdc         9           tot       1.00000  
      26  cha026                  26   87516.38256      41.65368       2.77621             0        26      s41647n2757e         0         0         0         0  
      27  cha027                  27   87120.07551      41.67042       2.76369             0        27      s41647n2757e         0         0         0         1           sdc        26           tot       1.00000  
      28  cha028                  28   83397.38589      41.69220       2.73990             0        28      s41647n2757e         0         0         0         1           sdc        78           tot       1.00000  
      29  cha029                  29   83395.13875      41.69758       2.73342             0        29      s41647n2757e         0         0         0         1           sdc        28           tot       1.00000  
      30  cha030                  30   81571.52707      41.70239       2.72049             0        30      s41739n2694e         0         0         0         1           sdc        29           tot       1.00000  
      31  cha031                  31   78611.73945      41.72069       2.70374             0        31      s41739n2694e         0         0         0         1           sdc        30           tot       1.00000  
      32  cha032                  32   77461.58135      41.74036       2.69388             0        32      s41739n2694e         0         0         0         1           sdc        31           tot       1.00000  
      33  cha033                  33   32135.14019      41.74255       2.67314             0        33      s41739n2694e         0         0         0         1           sdc        69           tot       1.00000  
      34  cha034                  34   32111.29560      41.76032       2.66974             0        34      s41739n2694e         0         0         0         1           sdc        33           tot       1.00000  
      35  cha035                  35   43707.69319      41.74129       2.66699             0        35      s41739n2694e         0         0         0         1           sdc        69           tot       1.00000  
      36  cha036                  36   30438.11706      41.73113       2.62017             0        36      s41739n2694e         0         0         0         1           sdc       100           tot       1.00000  
      37  cha037                  37   25792.10503      41.72456       2.57546             0        37      s41680n2489e         0         0         0         1           sdc       106           tot       1.00000  
      38  cha038                  38   22551.42566      41.72388       2.57276             0        38      s41680n2489e         0         0         0         1           sdc        37           tot       1.00000  
      39  cha039                  39   17911.03147      41.70784       2.52752             0        39      s41680n2489e         0         0         0         1           sdc       112           tot       1.00000  
      40  cha040                  40   13522.50355      41.69109       2.50587             0        40      s41680n2489e         0         0         0         1           sdc        86           tot       1.00000  
      41  cha041                  41   13505.58762      41.68724       2.49930             0        41      s41680n2489e         0         0         0         1           sdc        40           tot       1.00000  
      42  cha042                  42   12413.85501      41.68010       2.48840             0        42      s41680n2489e         0         0         0         1           sdc       116           tot       1.00000  
      43  cha043                  43    8767.38068      41.67983       2.47834             0        43      s41680n2489e         0         0         0         1           sdc        42           tot       1.00000  
      44  cha044                  44    8000.42135      41.70429       2.43941             0        44      s41680n2489e         0         0         0         1           sdc       117           tot       1.00000  
      45  cha045                  45    5648.67075      41.73644       2.41014             0        45      s41680n2489e         0         0         0         1           sdc       118           tot       1.00000  
      46  cha046                  46    5626.76119      41.74204       2.40573             0        46      s41840n2419e         0         0         0         1           sdc        45           tot       1.00000  
      47  cha047                  47    4717.04643      41.75973       2.38919             0        47      s41840n2419e         0         0         0         1           sdc        87           tot       1.00000  
      48  cha048                  48   11153.64976      41.73194       2.62588             0        48      s41739n2694e         0         0         0         1           sdc       100           tot       1.00000  
      49  cha049                  49   11152.71345      41.73677       2.62239             0        49      s41739n2694e         0         0         0         1           sdc        48           tot       1.00000  
      50  cha050                  50   10580.19364      41.76220       2.59129             0        50      s41739n2694e         0         0         0         1           sdc       101           tot       1.00000  
      51  cha051                  51   10451.42037      41.76723       2.58179             0        51      s41739n2694e         0         0         0         1           sdc        50           tot       1.00000  
      52  cha052                  52    3642.97878      41.67581       2.48393             0        52      s41680n2489e         0         0         0         1           sdc        42           tot       1.00000  
      53  cha053                  53    1590.59637      41.69118       2.73810             0        53      s41647n2757e         0         0         0         1           sdc        78           tot       1.00000  
      54  cha054                  54    1842.96201      41.65966       2.49384             0        54      s41680n2489e         0         0         0         1           sdc        52           tot       1.00000  
      55  cha055                  55    1688.84606      41.67013       2.47377             0        55      s41680n2489e         0         0         0         1           sdc        52           tot       1.00000  
      56  cha056                  56    2838.37996      41.70360       2.70697             0        56      s41739n2694e         0         0         0         1           sdc        30           tot       1.00000  
      57  cha057                  57    1692.65371      41.70106       2.58012             0        57      s41680n2489e         0         0         0         1           sdc       106           tot       1.00000  
      58  cha058                  58    2603.42961      41.71392       2.52882             0        58      s41680n2489e         0         0         0         1           sdc       112           tot       1.00000  
      59  cha059                  59    3240.49211      41.72523       2.57380             0        59      s41680n2489e         0         0         0         1           sdc        37           tot       1.00000  
      60  cha060                  60    2726.83472      41.72826       2.57063             0        60      s41680n2489e         0         0         0         1           sdc        59           tot       1.00000  
      61  cha061                  61     508.91344      41.72678       2.56598             0        61      s41680n2489e         0         0         0         1           sdc        59           tot       1.00000  
      62  cha062                  62    1908.00405      41.73196       2.56715             0        62      s41680n2489e         0         0         0         1           sdc        60           tot       1.00000  
      63  cha063                  63     768.83194      41.73422       2.56908             0        63      s41680n2489e         0         0         0         1           sdc        60           tot       1.00000  
      64  cha064                  64    1396.21928      41.77093       2.52198             0        64      s41680n2489e         0         0         0         1           sdc       107           tot       1.00000  
      65  cha065                  65    4470.67315      41.81712       2.50867             0        65      s41840n2419e         0         0         0         1           sdc       103           tot       1.00000  
      66  cha066                  66    1095.10332      41.81482       2.52177             0        66      s41840n2419e         0         0         0         1           sdc       103           tot       1.00000  
      67  cha067                  67    1094.79122      41.81549       2.52067             0        67      s41840n2419e         0         0         0         1           sdc        66           tot       1.00000  
      68  cha068                  68    1003.59503      41.75386       2.69457             0        68      s41739n2694e         0         0         0         1           sdc        32           tot       1.00000  
      69  cha069                  69   76446.18887      41.74078       2.68517             0        69      s41739n2694e         0         0         0         1           sdc        32           tot       1.00000  
      70  cha070                  70    1428.80272      41.77676       2.77067             0        70      s41739n2694e         0         0         0         1           sdc        17           tot       1.00000  
      71  cha071                  71    1011.14789      41.78168       2.77431             0        71      s41739n2694e         0         0         0         1           sdc        17           tot       1.00000  
      72  cha072                  72    5114.16495      41.80756       2.75342             0        72      s41885n2741e         0         0         0         1           sdc        15           tot       1.00000  
      73  cha073                  73    1346.78233      41.77155       2.75250             0        73      s41739n2694e         0         0         0         1           sdc        18           tot       1.00000  
      74  cha074                  74     508.10197      41.76958       2.46920             0        74      s41840n2419e         0         0         0         1           sdc       113           tot       1.00000  
      75  cha075                  75     428.70324      41.77272       2.46587             0        75      s41840n2419e         0         0         0         1           sdc        74           tot       1.00000  
      76  cha076                  76    1573.18108      41.68948       2.73375             0        76      s41647n2757e         0         0         0         1           sdc        53           tot       1.00000  
      77  cha077                  77    1224.87531      41.69363       2.75812             0        77      s41647n2757e         0         0         0         1           sdc        27           tot       1.00000  
      78  cha078                  78   85029.49182      41.68828       2.74712             0        78      s41647n2757e         0         0         0         1           sdc        27           tot       1.00000  
      79  cha079                  79    1773.23843      41.71007       2.73262             0        79      s41739n2694e         0         0         0         1           sdc        29           tot       1.00000  
      80  cha080                  80    1211.39250      41.70839       2.69148             0        80      s41739n2694e         0         0         0         1           sdc        56           tot       1.00000  
      81  cha081                  81    9959.61012      41.80679       2.71236             0        81      s41739n2694e         0         0         0         1           sdc         6           tot       1.00000  
      82  cha082                  82    1450.40018      41.80700       2.70560             0        82      s41739n2694e         0         0         0         1           sdc         6           tot       1.00000  
      83  cha083                  83    2389.45252      41.83116       2.74054             0        83      s41885n2741e         0         0         0         1           sdc        72           tot       1.00000  
      84  cha084                  84    1189.54537      41.83176       2.71090             0        84      s41865n2664e         0         0         0         1           sdc        20           tot       1.00000  
      85  cha085                  85    1997.76457      41.72197       2.51750             0        85      s41680n2489e         0         0         0         1           sdc        58           tot       1.00000  
      86  cha086                  86   16211.13699      41.69460       2.51050             0        86      s41680n2489e         0         0         0         1           sdc       114           tot       1.00000  
      87  cha087                  87    4933.95728      41.74977       2.39995             0        87      s41840n2419e         0         0         0         1           sdc        46           tot       1.00000  
      88  cha088                  88    1152.96702      41.78186       2.40658             0        88      s41840n2419e         0         0         0         1           sdc        16           tot       1.00000  
      89  cha089                  89     960.58738      41.72842       2.45138             0        89      s41680n2489e         0         0         0         1           sdc       115           tot       1.00000  
      90  cha090                  90    2532.83215      41.69498       2.49398             0        90      s41680n2489e         0         0         0         1           sdc        86           tot       1.00000  
      91  cha091                  91     789.61793      41.78382       2.85138             0        91      s41875n2927e         0         0         0         1           sdc        93           tot       1.00000  
      92  cha092                  92    2917.52902      41.79340       2.76249             0        92      s41739n2694e         0         0         0         1           sdc        13           tot       1.00000  
      93  cha093                  93    1270.75429      41.79692       2.82411             0        93      s41898n2819e         0         0         0         1           sdc        98           tot       1.00000  
      94  cha094                  94     920.45107      41.86390       2.68455             0        94      s41865n2664e         0         0         0         1           sdc        84           tot       1.00000  
      95  cha095                  95     380.32743      41.77767       2.45739             0        95      s41840n2419e         0         0         0         1           sdc        75           tot       1.00000  
      96  cha096                  96     556.47777      41.79571       2.41361             0        96      s41840n2419e         0         0         0         1           sdc        88           tot       1.00000  
      97  cha097                  97   13202.09969      41.79644       2.71602             0        97      s41739n2694e         0         0         0         1           sdc        11           tot       1.00000  
      98  cha098                  98    2049.57350      41.78945       2.79782             0        98      s41898n2819e         0         0         0         1           sdc        92           tot       1.00000  
      99  cha099                  99    8003.29269      41.83329       2.69254             0        99      s41865n2664e         0         0         0         1           sdc         7           tot       1.00000  
     100  cha100                 100   43151.09057      41.73705       2.64162             0       100      s41739n2694e         0         0         0         1           sdc        35           tot       1.00000  
     101  cha101                 101   10989.85865      41.75067       2.60894             0       101      s41739n2694e         0         0         0         1           sdc        49           tot       1.00000  
     102  cha102                 102   10335.81781      41.78427       2.56424             0       102      s41865n2664e         0         0         0         1           sdc        51           tot       1.00000  
     103  cha103                 103    5766.33318      41.81270       2.52720             0       103      s41840n2419e         0         0         0         1           sdc        14           tot       1.00000  
     104  cha104                 104   28787.03533      41.72918       2.60862             0       104      s41739n2694e         0         0         0         1           sdc        36           tot       1.00000  
     105  cha105                 105   28212.95501      41.72802       2.59901             0       105      s41739n2694e         0         0         0         1           sdc       104           tot       1.00000  
     106  cha106                 106   27543.62117      41.72651       2.58536             0       106      s41680n2489e         0         0         0         1           sdc       105           tot       1.00000  
     107  cha107                 107    1528.48808      41.76131       2.53554             0       107      s41680n2489e         0         0         0         1           sdc       108           tot       1.00000  
     108  cha108                 108    1574.61675      41.75136       2.54944             0       108      s41680n2489e         0         0         0         1           sdc       109           tot       1.00000  
     109  cha109                 109    1839.96583      41.74227       2.55701             0       109      s41680n2489e         0         0         0         1           sdc       110           tot       1.00000  
     110  cha110                 110    1873.86010      41.73555       2.56337             0       110      s41680n2489e         0         0         0         1           sdc        62           tot       1.00000  
     111  cha111                 111   22538.87916      41.71943       2.55642             0       111      s41680n2489e         0         0         0         1           sdc        38           tot       1.00000  
     112  cha112                 112   20691.17320      41.71339       2.53829             0       112      s41680n2489e         0         0         0         1           sdc       111           tot       1.00000  
     113  cha113                 113    1650.95689      41.74774       2.49102             0       113      s41680n2489e         0         0         0         1           sdc        85           tot       1.00000  
     114  cha114                 114   16643.64787      41.70082       2.51706             0       114      s41680n2489e         0         0         0         1           sdc        39           tot       1.00000  
     115  cha115                 115    2044.26776      41.70131       2.47442             0       115      s41680n2489e         0         0         0         1           sdc        90           tot       1.00000  
     116  cha116                 116   12459.17221      41.68237       2.49183             0       116      s41680n2489e         0         0         0         1           sdc        41           tot       1.00000  
     117  cha117                 117    8086.56149      41.68190       2.46347             0       117      s41680n2489e         0         0         0         1           sdc        43           tot       1.00000  
     118  cha118                 118    6012.51920      41.73005       2.41590             0       118      s41680n2489e         0         0         0         1           sdc        44           tot       1.00000  
     119  cha119                 119    3500.84756      41.77003       2.37917             0       119      s41748n2303e         0         0         0         1           sdc        47           tot       1.00000  
