codes.bsn: written by SWAT+ editor v3.0.0 on 2024-06-21 16:08 for SWAT+ rev.61.0
        pet_file           wq_file       pet     event     crack  swift_out   sed_det   rte_cha   deg_cha    wq_cha  nostress        cn    c_fact    carbon     lapse      uhyd   sed_cha  tiledrain    wtable    soil_p     gampt          atmo_dep  stor_max   i_fpwet    gwflow  
            null              null         1         0         0         1         0         0         0         1         0         0         0         0         0         1         0         0         0         0         0                 a         0         0         1  
