exco_om.exc: written by SWAT+ editor v2.3.3 on 2024-02-27 22:14 for SWAT+ rev.60.5.7
name                       flo           sed          orgn          sedp           no3          solp          chla           nh3           no2          cbod           dox          sand          silt          clay           sag           lag        gravel           tmp  
pt002                 50.00000       0.00000       0.00000       0.00000       0.00000       0.00000       0.00000       0.00000       0.00000       4.00000       0.00000       0.00000       0.00000       0.00000       0.00000       0.00000       0.00000       0.00000  
pt022                  0.67397       0.00000       0.00000       0.00000       0.00000       0.00000       0.00000       0.00000       0.00000       0.00000       0.00000       0.00000       0.00000       0.00000       0.00000       0.00000       0.00000       0.00000  
pt028                  0.80000       0.00000       0.00000       0.00000       0.00000       0.00000       0.00000       0.00000       0.00000       0.00000       0.00000       0.00000       0.00000       0.00000       0.00000       0.00000       0.00000       0.00000  
pt030               3113.93099       0.00000       1.61163       0.36222      33.37503       4.81241       0.00000       0.00000       0.00000      45.80490       0.00000       0.00000       0.00000       0.00000       0.00000       0.00000       0.00000       0.00000  
pt034                  0.43836       0.00000       0.00041       0.00000       0.00138       0.00000       0.00000       0.00000       0.00000       0.00000       0.00000       0.00000       0.00000       0.00000       0.00000       0.00000       0.00000       0.00000  
pt036               1583.46800       0.00000       1.50735       0.31214       0.00000       4.14698       0.00000       0.00000       0.00000      24.03794       0.00000       0.00000       0.00000       0.00000       0.00000       0.00000       0.00000       0.00000  
pt040                  2.70137       0.00000       0.00508       0.00000       0.00000       0.00000       0.00000       0.00000       0.00000       0.03200       0.00000       0.00000       0.00000       0.00000       0.00000       0.00000       0.00000       0.00000  
pt042                 57.36438       0.00000       0.18368       0.00000       0.00000       0.00000       0.00000       0.00000       0.00000       3.85000       0.00000       0.00000       0.00000       0.00000       0.00000       0.00000       0.00000       0.00000  
pt044               1488.10449       0.00000       0.57786       0.19664      12.71290       2.61256       0.00000       0.00000       0.00000      43.90801       0.00000       0.00000       0.00000       0.00000       0.00000       0.00000       0.00000       0.00000  
pt070               1211.06301       0.00000       3.21646       0.00000       0.00000       0.00000       0.00000       0.00000       0.00000      14.61918       0.00000       0.00000       0.00000       0.00000       0.00000       0.00000       0.00000       0.00000  
pt072                 85.22740       0.00000       0.29233       0.00000       0.00000       0.00000       0.00000       0.00000       0.00000       2.26093       0.00000       0.00000       0.00000       0.00000       0.00000       0.00000       0.00000       0.00000  
pt078                172.36986       0.00000       0.00000       0.00000       0.00000       0.00000       0.00000       0.00000       0.00000       0.00002       0.00000       0.00000       0.00000       0.00000       0.00000       0.00000       0.00000       0.00000  
pt088                  4.00000       0.00000       0.07560       0.00000       0.00000       0.00000       0.00000       0.00000       0.00000       0.20000       0.00000       0.00000       0.00000       0.00000       0.00000       0.00000       0.00000       0.00000  
pt092                  2.60274       0.00000       0.01148       0.00000       0.00000       0.00000       0.00000       0.00000       0.00000       0.20822       0.00000       0.00000       0.00000       0.00000       0.00000       0.00000       0.00000       0.00000  
pt094                 15.00000       0.00000       0.07560       0.00000       0.00000       0.00000       0.00000       0.00000       0.00000       0.00000       0.00000       0.00000       0.00000       0.00000       0.00000       0.00000       0.00000       0.00000  
pt096                974.49321       0.00000       0.50636       0.17231      11.13982       2.28929       0.00000       0.00000       0.00000      11.58687       0.00000       0.00000       0.00000       0.00000       0.00000       0.00000       0.00000       0.00000  
pt098                  7.00000       0.00000       0.03339       0.00000       0.00000       0.00000       0.00000       0.00000       0.00000       0.00000       0.00000       0.00000       0.00000       0.00000       0.00000       0.00000       0.00000       0.00000  
pt102                  1.09589       0.00000       0.00000       0.00000       0.00000       0.00000       0.00000       0.00000       0.00000       0.00000       0.00000       0.00000       0.00000       0.00000       0.00000       0.00000       0.00000       0.00000  
pt104                148.38356       0.00000       0.00000       0.00000       0.00000       0.00000       0.00000       0.00000       0.00000      10.52055       0.00000       0.00000       0.00000       0.00000       0.00000       0.00000       0.00000       0.00000  
pt106               3427.61263       0.00000       1.69335       0.40434      37.25360       5.37195       0.00000       0.00000       0.00000      51.13063       0.00000       0.00000       0.00000       0.00000       0.00000       0.00000       0.00000       0.00000  
pt108                 12.28493       0.00000       0.01218       0.00000       0.00000       0.00000       0.00000       0.00000       0.00000       0.00000       0.00000       0.00000       0.00000       0.00000       0.00000       0.00000       0.00000       0.00000  
pt110                924.76877       0.00000       0.46314       0.11019      10.15258       1.46400       0.00000       0.00000       0.00000      13.93444       0.00000       0.00000       0.00000       0.00000       0.00000       0.00000       0.00000       0.00000  
pt112                 24.43836       0.00000       0.00000       0.00000       0.00000       0.00000       0.00000       0.00000       0.00000       0.00000       0.00000       0.00000       0.00000       0.00000       0.00000       0.00000       0.00000       0.00000  
pt116                  0.27397       0.00000       0.00000       0.00000       0.00000       0.00000       0.00000       0.00000       0.00000       0.00000       0.00000       0.00000       0.00000       0.00000       0.00000       0.00000       0.00000       0.00000  
pt120                  1.20548       0.00000       0.00532       0.00000       0.00000       0.00000       0.00000       0.00000       0.00000       0.00000       0.00000       0.00000       0.00000       0.00000       0.00000       0.00000       0.00000       0.00000  
pt122                838.53000       0.00000       0.66411       0.17294       0.00000       2.29762       0.00000       0.00000       0.00000      13.31811       0.00000       0.00000       0.00000       0.00000       0.00000       0.00000       0.00000       0.00000  
pt124                  1.15068       0.00000       0.02900       0.00000       0.00000       0.00000       0.00000       0.00000       0.00000       0.09205       0.00000       0.00000       0.00000       0.00000       0.00000       0.00000       0.00000       0.00000  
pt126                914.45564       0.00000       0.74231       0.18527       0.00000       2.46140       0.00000       0.00000       0.00000      15.94915       0.00000       0.00000       0.00000       0.00000       0.00000       0.00000       0.00000       0.00000  
pt128                 11.73973       0.00000       0.18218       0.00000       0.00000       0.00000       0.00000       0.00000       0.00000       0.72397       0.00000       0.00000       0.00000       0.00000       0.00000       0.00000       0.00000       0.00000  
pt132               1596.14671       0.00000       0.79672       0.19024      17.52782       2.52750       0.00000       0.00000       0.00000      24.05697       0.00000       0.00000       0.00000       0.00000       0.00000       0.00000       0.00000       0.00000  
pt134                  0.41096       0.00000       0.00207       0.00000       0.00000       0.00000       0.00000       0.00000       0.00000       0.03288       0.00000       0.00000       0.00000       0.00000       0.00000       0.00000       0.00000       0.00000  
pt136                703.49400       0.00000       0.35118       0.08386       7.72606       1.11409       0.00000       0.00000       0.00000      10.60403       0.00000       0.00000       0.00000       0.00000       0.00000       0.00000       0.00000       0.00000  
pt140                477.47647       0.00000       0.40975       0.07882       5.09576       1.04720       0.00000       0.00000       0.00000       5.30025       0.00000       0.00000       0.00000       0.00000       0.00000       0.00000       0.00000       0.00000  
pt146                145.44200       0.00000       0.07619       0.02593       1.67627       0.34448       0.00000       0.00000       0.00000       1.74354       0.00000       0.00000       0.00000       0.00000       0.00000       0.00000       0.00000       0.00000  
pt152                403.23288       0.00000       0.00003       0.00000       0.00000       0.00000       0.00000       0.00000       0.00000       0.00006       0.00000       0.00000       0.00000       0.00000       0.00000       0.00000       0.00000       0.00000  
pt158                  0.21000       0.00000       0.00106       0.00000       0.00000       0.00000       0.00000       0.00000       0.00000       0.01680       0.00000       0.00000       0.00000       0.00000       0.00000       0.00000       0.00000       0.00000  
pt160                115.00000       0.00000       0.72450       0.00000       0.00000       0.00000       0.00000       0.00000       0.00000       0.00000       0.00000       0.00000       0.00000       0.00000       0.00000       0.00000       0.00000       0.00000  
pt166                  1.20548       0.00000       0.00456       0.00000       0.00000       0.00000       0.00000       0.00000       0.00000       0.06027       0.00000       0.00000       0.00000       0.00000       0.00000       0.00000       0.00000       0.00000  
pt168                  3.94521       0.00000       0.01836       0.00000       0.00000       0.00000       0.00000       0.00000       0.00000       0.06027       0.00000       0.00000       0.00000       0.00000       0.00000       0.00000       0.00000       0.00000  
pt172               3951.13400       0.00000       1.97241       0.47098      43.39299       6.25725       0.00000       0.00000       0.00000      59.55695       0.00000       0.00000       0.00000       0.00000       0.00000       0.00000       0.00000       0.00000  
pt178                 52.00000       0.00000       0.19656       0.00000       0.00000       0.00000       0.00000       0.00000       0.00000       4.16000       0.00000       0.00000       0.00000       0.00000       0.00000       0.00000       0.00000       0.00000  
pt184                  2.46575       0.00000       0.07767       0.00000       0.00000       0.00000       0.00000       0.00000       0.00000       0.19726       0.00000       0.00000       0.00000       0.00000       0.00000       0.00000       0.00000       0.00000  
pt186                250.00000       0.00000      11.02500       0.00000       0.00000       0.00000       0.00000       0.00000       0.00000       0.00000       0.00000       0.00000       0.00000       0.00000       0.00000       0.00000       0.00000       0.00000  
pt188                  3.45205       0.00000       0.01305       0.00000       0.00000       0.00000       0.00000       0.00000       0.00000       0.00000       0.00000       0.00000       0.00000       0.00000       0.00000       0.00000       0.00000       0.00000  
pt196                160.00000       0.00000       6.04800       0.00000       0.00000       0.77464       0.00000       0.00000       0.00000       0.00000       0.00000       0.00000       0.00000       0.00000       0.00000       0.00000       0.00000       0.00000  
pt198               2866.79690       0.00000       1.43328       0.34088      31.53205       4.52880       0.00000       0.00000       0.00000      43.73806       0.00000       0.00000       0.00000       0.00000       0.00000       0.00000       0.00000       0.00000  
pt208                  5.44110       0.00000       0.00000       0.00000       0.00000       0.00000       0.00000       0.00000       0.00000       0.00000       0.00000       0.00000       0.00000       0.00000       0.00000       0.00000       0.00000       0.00000  
pt218                  2.04932       0.00000       0.01033       0.00000       0.00000       0.00000       0.00000       0.00000       0.00000       0.16395       0.00000       0.00000       0.00000       0.00000       0.00000       0.00000       0.00000       0.00000  
pt220                  3.00000       0.00000       0.01323       0.00000       0.00000       0.00000       0.00000       0.00000       0.00000       0.00000       0.00000       0.00000       0.00000       0.00000       0.00000       0.00000       0.00000       0.00000  
pt222               1634.19726       0.00000       1.94516       0.00000       2.58904       0.00000       0.00000       0.00000       0.00000       0.00000       0.00000       0.00000       0.00000       0.00000       0.00000       0.00000       0.00000       0.00000  
pt228                443.83562       0.00000       0.00000       0.00000       0.00000       0.00000       0.00000       0.00000       0.00000       0.00004       0.00000       0.00000       0.00000       0.00000       0.00000       0.00000       0.00000       0.00000  
pt230                 10.14521       0.00000       0.12783       0.00000       0.00000       0.00000       0.00000       0.00000       0.00000       0.71016       0.00000       0.00000       0.00000       0.00000       0.00000       0.00000       0.00000       0.00000  
pt234               2770.26501       0.00000       1.36282       0.32542      29.98201       4.32339       0.00000       0.00000       0.00000      41.15036       0.00000       0.00000       0.00000       0.00000       0.00000       0.00000       0.00000       0.00000  
