exco.con: written by SWAT+ editor v2.3.3 on 2024-02-27 22:14 for SWAT+ rev.60.5.7
      id  name                gis_id          area           lat           lon          elev      exco               wst       cst      ovfl      rule   out_tot       obj_typ    obj_id       hyd_typ          frac  
       1  pt002                    2       0.00001      41.79820       2.61471     169.41600         1      s41865n2664e         0         0         0         1           sdc         1           tot       1.00000  
       2  pt022                   22       0.00001      41.79460       2.69904      68.87900         2      s41739n2694e         0         0         0         1           sdc        11           tot       1.00000  
       3  pt028                   28       0.00001      41.81070       2.53233     241.02600         3      s41840n2419e         0         0         0         1           sdc        14           tot       1.00000  
       4  pt030                   30       0.00001      41.80485       2.74801      66.81000         4      s41885n2741e         0         0         0         1           sdc        15           tot       1.00000  
       5  pt034                   34       0.00001      41.78822       2.76101      73.83300         5      s41739n2694e         0         0         0         1           sdc        17           tot       1.00000  
       6  pt036                   36       0.00001      41.78794       2.73665      69.86500         6      s41739n2694e         0         0         0         1           sdc        18           tot       1.00000  
       7  pt040                   40       0.00001      41.82053       2.71907      82.40600         7      s41885n2741e         0         0         0         1           sdc        20           tot       1.00000  
       8  pt042                   42       0.00001      41.84673       2.51232     402.83099         8      s41840n2419e         0         0         0         1           sdc        21           tot       1.00000  
       9  pt044                   44       0.00001      41.82670       2.78270      78.79700         9      s41885n2741e         0         0         0         1           sdc        22           tot       1.00000  
      10  pt070                   70       0.00001      41.74273       2.65721      47.85300        10      s41739n2694e         0         0         0         1           sdc        35           tot       1.00000  
      11  pt072                   72       0.00001      41.73089       2.61432      62.55200        11      s41739n2694e         0         0         0         1           sdc        36           tot       1.00000  
      12  pt078                   78       0.00001      41.70466       2.52108     106.15100        12      s41680n2489e         0         0         0         1           sdc        39           tot       1.00000  
      13  pt088                   88       0.00001      41.72445       2.42061     266.03601        13      s41680n2489e         0         0         0         1           sdc        44           tot       1.00000  
      14  pt092                   92       0.00001      41.74686       2.40238     345.31400        14      s41840n2419e         0         0         0         1           sdc        46           tot       1.00000  
      15  pt094                   94       0.00001      41.76677       2.38085     429.03799        15      s41748n2303e         0         0         0         1           sdc        47           tot       1.00000  
      16  pt096                   96       0.00001      41.73250       2.62572      62.61300        16      s41739n2694e         0         0         0         1           sdc        48           tot       1.00000  
      17  pt098                   98       0.00001      41.74103       2.61906      71.50500        17      s41739n2694e         0         0         0         1           sdc        49           tot       1.00000  
      18  pt102                  102       0.00001      41.77037       2.57981     120.29100        18      s41739n2694e         0         0         0         1           sdc        51           tot       1.00000  
      19  pt104                  104       0.00001      41.67163       2.47991     146.06799        19      s41680n2489e         0         0         0         1           sdc        52           tot       1.00000  
      20  pt106                  106       0.00001      41.69073       2.73555      17.20800        20      s41647n2757e         0         0         0         1           sdc        53           tot       1.00000  
      21  pt108                  108       0.00001      41.64770       2.50777     211.76700        21      s41680n2489e         0         0         0         1           sdc        54           tot       1.00000  
      22  pt110                  110       0.00001      41.66864       2.46763     157.30901        22      s41680n2489e         0         0         0         1           sdc        55           tot       1.00000  
      23  pt112                  112       0.00001      41.70482       2.70066      28.09400        23      s41739n2694e         0         0         0         1           sdc        56           tot       1.00000  
      24  pt116                  116       0.00001      41.71682       2.52370     108.25400        24      s41680n2489e         0         0         0         1           sdc        58           tot       1.00000  
      25  pt120                  120       0.00001      41.73073       2.56896      86.49900        25      s41680n2489e         0         0         0         1           sdc        60           tot       1.00000  
      26  pt122                  122       0.00001      41.72777       2.55966      90.31000        26      s41680n2489e         0         0         0         1           sdc        61           tot       1.00000  
      27  pt124                  124       0.00001      41.73319       2.56534      93.71500        27      s41680n2489e         0         0         0         1           sdc        62           tot       1.00000  
      28  pt126                  126       0.00001      41.73770       2.56921     100.94200        28      s41680n2489e         0         0         0         1           sdc        63           tot       1.00000  
      29  pt128                  128       0.00001      41.77530       2.51912     403.35101        29      s41680n2489e         0         0         0         1           sdc        64           tot       1.00000  
      30  pt132                  132       0.00001      41.81493       2.52147     263.00299        30      s41840n2419e         0         0         0         1           sdc        66           tot       1.00000  
      31  pt134                  134       0.00001      41.81606       2.51988     271.19601        31      s41840n2419e         0         0         0         1           sdc        67           tot       1.00000  
      32  pt136                  136       0.00001      41.76601       2.69556      52.12800        32      s41739n2694e         0         0         0         1           sdc        68           tot       1.00000  
      33  pt140                  140       0.00001      41.76531       2.78033      91.68700        33      s41739n2694e         0         0         0         1           sdc        70           tot       1.00000  
      34  pt146                  146       0.00001      41.75516       2.76834     105.98500        34      s41739n2694e         0         0         0         1           sdc        73           tot       1.00000  
      35  pt152                  152       0.00001      41.68824       2.73196      20.55600        35      s41647n2757e         0         0         0         1           sdc        76           tot       1.00000  
      36  pt158                  158       0.00001      41.71773       2.73754      30.17800        36      s41739n2694e         0         0         0         1           sdc        79           tot       1.00000  
      37  pt160                  160       0.00001      41.71197       2.68230      38.52900        37      s41739n2694e         0         0         0         1           sdc        80           tot       1.00000  
      38  pt166                  166       0.00001      41.85204       2.72224      89.69600        38      s41885n2741e         0         0         0         1           sdc        83           tot       1.00000  
      39  pt168                  168       0.00001      41.84299       2.70272      95.59900        39      s41865n2664e         0         0         0         1           sdc        84           tot       1.00000  
      40  pt172                  172       0.00001      41.69223       2.50797     118.42100        40      s41680n2489e         0         0         0         1           sdc        86           tot       1.00000  
      41  pt178                  178       0.00001      41.75195       2.43391     647.11499        41      s41840n2419e         0         0         0         1           sdc        89           tot       1.00000  
      42  pt184                  184       0.00001      41.78625       2.78868      85.29000        42      s41739n2694e         0         0         0         1           sdc        92           tot       1.00000  
      43  pt186                  186       0.00001      41.80119       2.84126     131.15401        43      s41898n2819e         0         0         0         1           sdc        93           tot       1.00000  
      44  pt188                  188       0.00001      41.88481       2.66636     164.83299        44      s41865n2664e         0         0         0         1           sdc        94           tot       1.00000  
      45  pt196                  196       0.00001      41.79265       2.80697      97.76900        45      s41898n2819e         0         0         0         1           sdc        98           tot       1.00000  
      46  pt198                  198       0.00001      41.85011       2.67259     115.92100        46      s41865n2664e         0         0         0         1           sdc        99           tot       1.00000  
      47  pt208                  208       0.00001      41.72747       2.60292      66.78800        47      s41739n2694e         0         0         0         1           sdc       104           tot       1.00000  
      48  pt218                  218       0.00001      41.74664       2.55262     152.38000        48      s41680n2489e         0         0         0         1           sdc       109           tot       1.00000  
      49  pt220                  220       0.00001      41.73790       2.56140     111.82100        49      s41680n2489e         0         0         0         1           sdc       110           tot       1.00000  
      50  pt222                  222       0.00001      41.71577       2.54263      91.82900        50      s41680n2489e         0         0         0         1           sdc       111           tot       1.00000  
      51  pt228                  228       0.00001      41.69697       2.51303     111.48000        51      s41680n2489e         0         0         0         1           sdc       114           tot       1.00000  
      52  pt230                  230       0.00001      41.70488       2.46883     197.97400        52      s41680n2489e         0         0         0         1           sdc       115           tot       1.00000  
      53  pt234                  234       0.00001      41.68413       2.45820     165.36200        53      s41680n2489e         0         0         0         1           sdc       117           tot       1.00000  
