hru.con: written by SWAT+ editor v3.0.0 on 2024-06-21 16:07 for SWAT+ rev.61.0
      id  name                gis_id          area           lat           lon          elev       hru               wst       cst      ovfl      rule   out_tot  
       1  hru0001                  1      50.55383      41.67434       2.77789      19.26823         1      s41647n2757e         0         0         0         0  
       2  hru0002                  2      38.80585      41.67336       2.77774      26.65378         2      s41647n2757e         0         0         0         0  
       3  hru0003                  3      51.67864      41.67037       2.77666       7.78718         3      s41647n2757e         0         0         0         0  
       4  hru0004                  4       5.06163      41.67443       2.77162      11.91358         4      s41647n2757e         0         0         0         0  
       5  hru0005                  5      12.06043      41.67009       2.77515       6.79793         5      s41647n2757e         0         0         0         0  
       6  hru0006                  6       3.06198      41.67525       2.77285      17.67347         6      s41647n2757e         0         0         0         0  
       7  hru0007                  7       3.06198      41.67765       2.77959      26.34694         7      s41647n2757e         0         0         0         0  
       8  hru0008                  8       0.68738      41.67779       2.77970      27.81818         8      s41647n2757e         0         0         0         0  
       9  hru0009                  9       0.24996      41.67732       2.77905      23.25000         9      s41647n2757e         0         0         0         0  
      10  hru0010                 10       2.06215      41.67572       2.77236      10.57576        10      s41647n2757e         0         0         0         0  
      11  hru0011                 11       1.74970      41.67594       2.77250      12.10714        11      s41647n2757e         0         0         0         0  
      12  hru0012                 12       0.18747      41.67618       2.77153      13.66667        12      s41647n2757e         0         0         0         0  
      13  hru0013                 13       2.12464      41.66697       2.78404       4.58824        13      s41647n2757e         0         0         0         0  
      14  hru0014                 14       0.24996      41.66731       2.78396       4.50000        14      s41647n2757e         0         0         0         0  
      15  hru0015                 15       0.93734      41.67284       2.76352      12.13333        15      s41647n2757e         0         0         0         0  
      16  hru0016                 16      26.62044      41.66689       2.76927       5.55634        16      s41647n2757e         0         0         0         0  
      17  hru0017                 17       0.62489      41.67025       2.76742       7.30000        17      s41647n2757e         0         0         0         0  
      18  hru0018                 18       0.56240      41.67396       2.76517      12.77778        18      s41647n2757e         0         0         0         0  
      19  hru0019                 19      12.31039      41.67022       2.76619       6.56345        19      s41647n2757e         0         0         0         0  
      20  hru0020                 20       0.81236      41.66815       2.76704       7.23077        20      s41647n2757e         0         0         0         0  
      21  hru0021                 21      47.86679      41.65764       2.77129       3.10574        21      s41647n2757e         0         0         0         0  
      22  hru0022                 22       2.37459      41.65980       2.77191       4.73684        22      s41647n2757e         0         0         0         0  
      23  hru0023                 23       0.37494      41.66870       2.76625       9.66667        23      s41647n2757e         0         0         0         0  
      24  hru0024                 24       3.93683      41.66238       2.77218       4.39683        24      s41647n2757e         0         0         0         0  
      25  hru0025                 25       0.24996      41.66846       2.76715       8.75000        25      s41647n2757e         0         0         0         0  
      26  hru0026                 26       0.06249      41.66829       2.76685      10.00000        26      s41647n2757e         0         0         0         0  
      27  hru0027                 27       7.81116      41.66147       2.76795       4.83200        27      s41647n2757e         0         0         0         0  
      28  hru0028                 28       0.06249      41.66604       2.76746       7.00000        28      s41647n2757e         0         0         0         0  
      29  hru0029                 29       1.62472      41.65961       2.76976       4.03846        29      s41647n2757e         0         0         0         0  
      30  hru0030                 30       3.43691      41.66818       2.76889       5.90909        30      s41647n2757e         0         0         0         0  
      31  hru0031                 31       1.56223      41.66852       2.76965       6.40000        31      s41647n2757e         0         0         0         0  
      32  hru0032                 32       0.31245      41.66938       2.77021      13.00000        32      s41647n2757e         0         0         0         0  
      33  hru0033                 33       5.87399      41.66153       2.77602      11.50000        33      s41647n2757e         0         0         0         0  
      34  hru0034                 34      12.37288      41.66097       2.77319       3.70202        34      s41647n2757e         0         0         0         0  
      35  hru0035                 35      11.06060      41.66985       2.77638      26.40113        35      s41647n2757e         0         0         0         0  
      36  hru0036                 36       3.37442      41.66543       2.76979       5.35185        36      s41647n2757e         0         0         0         0  
      37  hru0037                 37       0.24996      41.66857       2.76813       9.00000        37      s41647n2757e         0         0         0         0  
      38  hru0038                 38       0.99983      41.66839       2.76824       7.43750        38      s41647n2757e         0         0         0         0  
      39  hru0039                 39       0.49991      41.65978       2.77142       4.87500        39      s41647n2757e         0         0         0         0  
      40  hru0040                 40       0.12498      41.66750       2.76731       8.50000        40      s41647n2757e         0         0         0         0  
      41  hru0041                 41       0.99983      41.66389       2.77010       4.62500        41      s41647n2757e         0         0         0         0  
      42  hru0042                 42       0.56240      41.66140       2.77068       4.66667        42      s41647n2757e         0         0         0         0  
      43  hru0043                 43      53.36585      41.65900       2.77729       3.08665        43      s41647n2757e         0         0         0         0  
      44  hru0044                 44       4.37425      41.65819       2.77849       3.41429        44      s41647n2757e         0         0         0         0  
      45  hru0045                 45       8.24859      41.65998       2.77944       3.36364        45      s41647n2757e         0         0         0         0  
      46  hru0046                 46       1.49974      41.65975       2.77990       3.83333        46      s41647n2757e         0         0         0         0  
      47  hru0047                 47       7.74867      41.65310       2.77481       2.00000        47      s41647n2757e         0         0         0         0  
      48  hru0048                 48       1.56223      41.65331       2.77572       2.28000        48      s41647n2757e         0         0         0         0  
      49  hru0049                 49       0.24996      41.65256       2.77876       2.00000        49      s41647n2757e         0         0         0         0  
      50  hru0050                 50      74.96689      41.69350       2.78130      73.05329        50      s41647n2757e         0         0         0         0  
      51  hru0051                 51       3.93248      41.69447       2.78104      52.11111        51      s41647n2757e         0         0         0         0  
      52  hru0052                 52       0.31210      41.69726       2.78164      52.20000        52      s41647n2757e         0         0         0         0  
      53  hru0053                 53      21.97198      41.69616       2.78055      78.64773        53      s41647n2757e         0         0         0         0  
      54  hru0054                 54       2.18471      41.69563       2.77895      49.85714        54      s41647n2757e         0         0         0         0  
      55  hru0055                 55       0.81147      41.69472       2.77630      36.30769        55      s41647n2757e         0         0         0         0  
      56  hru0056                 56      13.98217      41.70186       2.78276     109.84375        56      s41647n2757e         0         0         0         0  
      57  hru0057                 57       0.12484      41.70072       2.77965      71.50000        57      s41647n2757e         0         0         0         0  
      58  hru0058                 58      14.54395      41.68379       2.76198      46.00429        58      s41647n2757e         0         0         0         0  
      59  hru0059                 59       4.36943      41.68863       2.76406      29.28571        59      s41647n2757e         0         0         0         0  
      60  hru0060                 60       0.49936      41.68787       2.76675      32.37500        60      s41647n2757e         0         0         0         0  
      61  hru0061                 61       9.73758      41.69227       2.76376      36.48077        61      s41647n2757e         0         0         0         0  
      62  hru0062                 62      23.15796      41.68645       2.75988      47.65229        62      s41647n2757e         0         0         0         0  
      63  hru0063                 63       2.24713      41.68541       2.75538      21.61111        63      s41647n2757e         0         0         0         0  
      64  hru0064                 64       0.37452      41.69393       2.76141      36.00000        64      s41647n2757e         0         0         0         0  
      65  hru0065                 65       0.12484      41.69382       2.76106      34.00000        65      s41647n2757e         0         0         0         0  
      66  hru0066                 66       0.56178      41.69343       2.77444      28.22222        66      s41647n2757e         0         0         0         0  
      67  hru0067                 67       0.06242      41.69351       2.77487      28.00000        67      s41647n2757e         0         0         0         0  
      68  hru0068                 68       1.87261      41.69293       2.77480      36.96667        68      s41647n2757e         0         0         0         0  
      69  hru0069                 69       0.56178      41.69046       2.76304      25.55556        69      s41647n2757e         0         0         0         0  
      70  hru0070                 70       0.43694      41.69043       2.76300      28.42857        70      s41647n2757e         0         0         0         0  
      71  hru0071                 71      22.40892      41.69677       2.77372      49.27298        71      s41647n2757e         0         0         0         0  
      72  hru0072                 72      10.04968      41.69629       2.77262      41.86957        72      s41647n2757e         0         0         0         0  
      73  hru0073                 73       1.56051      41.69613       2.77275      38.92000        73      s41647n2757e         0         0         0         0  
      74  hru0074                 74       0.74904      41.70032       2.77497      65.33333        74      s41647n2757e         0         0         0         0  
      75  hru0075                 75       1.49809      41.70039       2.77493      66.16667        75      s41647n2757e         0         0         0         0  
      76  hru0076                 76       0.12484      41.69992       2.77560      59.50000        76      s41647n2757e         0         0         0         0  
      77  hru0077                 77      17.04077      41.69829       2.77608      58.43590        77      s41647n2757e         0         0         0         0  
      78  hru0078                 78       5.92994      41.69744       2.77494      50.80000        78      s41647n2757e         0         0         0         0  
      79  hru0079                 79       1.12357      41.69496       2.77558      36.33333        79      s41647n2757e         0         0         0         0  
      80  hru0080                 80       6.55414      41.69343       2.76796      38.01905        80      s41647n2757e         0         0         0         0  
      81  hru0081                 81       5.30573      41.69319       2.76783      34.37647        81      s41647n2757e         0         0         0         0  
      82  hru0082                 82       0.49936      41.69119       2.76857      24.75000        82      s41647n2757e         0         0         0         0  
      83  hru0083                 83       0.93631      41.69684       2.76707      52.20000        83      s41647n2757e         0         0         0         0  
      84  hru0084                 84       0.31210      41.69737       2.76849      51.40000        84      s41647n2757e         0         0         0         0  
      85  hru0085                 85       1.99745      41.69541       2.77462      38.21875        85      s41647n2757e         0         0         0         0  
      86  hru0086                 86       0.81147      41.69547       2.77489      35.92308        86      s41647n2757e         0         0         0         0  
      87  hru0087                 87       0.18726      41.69539       2.77496      32.66667        87      s41647n2757e         0         0         0         0  
      88  hru0088                 88       0.31210      41.69989       2.76932      65.80000        88      s41647n2757e         0         0         0         0  
      89  hru0089                 89       0.37452      41.69887       2.77090      61.83333        89      s41647n2757e         0         0         0         0  
      90  hru0090                 90       1.31083      41.69807       2.76753      57.76190        90      s41647n2757e         0         0         0         0  
      91  hru0091                 91       1.87261      41.69889       2.77014      58.30000        91      s41647n2757e         0         0         0         0  
      92  hru0092                 92       0.68662      41.69853       2.76947      51.09091        92      s41647n2757e         0         0         0         0  
      93  hru0093                 93       0.24968      41.69744       2.76825      59.50000        93      s41647n2757e         0         0         0         0  
      94  hru0094                 94       0.31210      41.69723       2.76777      60.20000        94      s41647n2757e         0         0         0         0  
      95  hru0095                 95       3.18344      41.69197       2.77357      28.82353        95      s41647n2757e         0         0         0         0  
      96  hru0096                 96       2.18471      41.69028       2.77609      38.88571        96      s41647n2757e         0         0         0         0  
      97  hru0097                 97       0.37452      41.69313       2.77222      25.66667        97      s41647n2757e         0         0         0         0  
      98  hru0098                 98       1.99745      41.69415       2.77474      30.25000        98      s41647n2757e         0         0         0         0  
      99  hru0099                 99       0.31210      41.69450       2.77469      32.20000        99      s41647n2757e         0         0         0         0  
     100  hru0100                100       0.18726      41.69403       2.77457      28.00000       100      s41647n2757e         0         0         0         0  
     101  hru0101                101       6.17962      41.68754       2.77778      41.60606       101      s41647n2757e         0         0         0         0  
     102  hru0102                102       3.55796      41.69093       2.77363      26.75439       102      s41647n2757e         0         0         0         0  
     103  hru0103                103       2.74650      41.69133       2.77222      23.65909       103      s41647n2757e         0         0         0         0  
     104  hru0104                104      59.73631      41.68466       2.76225      17.77116       104      s41647n2757e         0         0         0         0  
     105  hru0105                105      75.77835      41.68180       2.75800      11.84102       105      s41647n2757e         0         0         0         0  
     106  hru0106                106      29.27516      41.68463       2.76152      25.43710       106      s41647n2757e         0         0         0         0  
     107  hru0107                107      23.47007      41.68032       2.75739      18.33511       107      s41647n2757e         0         0         0         0  
     108  hru0108                108      20.09937      41.68349       2.76507      33.05901       108      s41647n2757e         0         0         0         0  
     109  hru0109                109      99.12358      41.67904       2.75220      11.55605       109      s41647n2757e         0         0         0         0  
     110  hru0110                110       1.68535      41.68622       2.76846      20.85185       110      s41647n2757e         0         0         0         0  
     111  hru0111                111       5.43057      41.68392       2.76867      14.20690       111      s41647n2757e         0         0         0         0  
     112  hru0112                112      11.36051      41.68096       2.76736      10.47253       112      s41647n2757e         0         0         0         0  
     113  hru0113                113      31.64714      41.67749       2.76420       9.23669       113      s41647n2757e         0         0         0         0  
     114  hru0114                114      11.36051      41.67929       2.76568      11.65385       114      s41647n2757e         0         0         0         0  
     115  hru0115                115       2.80892      41.67858       2.76660      13.97778       115      s41647n2757e         0         0         0         0  
     116  hru0116                116       3.24586      41.68373       2.73971      21.48077       116      s41647n2757e         0         0         0         0  
     117  hru0117                117       1.49809      41.68436       2.73973      19.25000       117      s41647n2757e         0         0         0         0  
     118  hru0118                118       3.24586      41.68324       2.73951      25.78846       118      s41647n2757e         0         0         0         0  
     119  hru0119                119       0.43694      41.66472       2.76772       7.14286       119      s41647n2757e         0         0         0         0  
     120  hru0120                120       0.99873      41.66369       2.76798       5.43750       120      s41647n2757e         0         0         0         0  
     121  hru0121                121       1.31083      41.66455       2.76820       5.38095       121      s41647n2757e         0         0         0         0  
     122  hru0122                122       0.49936      41.66118       2.76966       3.37500       122      s41647n2757e         0         0         0         0  
     123  hru0123                123       0.49936      41.66067       2.76977       4.50000       123      s41647n2757e         0         0         0         0  
     124  hru0124                124       0.12484      41.65997       2.77048       5.00000       124      s41647n2757e         0         0         0         0  
     125  hru0125                125       2.18471      41.69311       2.76049      33.45714       125      s41647n2757e         0         0         0         0  
     126  hru0126                126       0.37452      41.69333       2.76056      32.66667       126      s41647n2757e         0         0         0         0  
     127  hru0127                127       0.24968      41.69292       2.76166      36.75000       127      s41647n2757e         0         0         0         0  
     128  hru0128                128       7.05350      41.69076       2.76083      29.06195       128      s41647n2757e         0         0         0         0  
     129  hru0129                129       3.30828      41.69065       2.76000      31.22642       129      s41647n2757e         0         0         0         0  
     130  hru0130                130       2.18471      41.69088       2.76028      27.14286       130      s41647n2757e         0         0         0         0  
     131  hru0131                131       0.68662      41.69123       2.76063      31.72727       131      s41647n2757e         0         0         0         0  
     132  hru0132                132       0.68662      41.69082       2.75968      32.81818       132      s41647n2757e         0         0         0         0  
     133  hru0133                133       0.74904      41.68977       2.76325      26.08333       133      s41647n2757e         0         0         0         0  
     134  hru0134                134       1.18599      41.68958       2.76265      22.89474       134      s41647n2757e         0         0         0         0  
     135  hru0135                135       0.24968      41.68972       2.76280      21.50000       135      s41647n2757e         0         0         0         0  
     136  hru0136                136       0.18726      41.68858       2.78329      72.00000       136      s41647n2757e         0         0         0         0  
     137  hru0137                137       0.62420      41.68590       2.74929      22.00000       137      s41647n2757e         0         0         0         0  
     138  hru0138                138       1.49809      41.68637       2.74646      18.12500       138      s41647n2757e         0         0         0         0  
     139  hru0139                139       1.99745      41.68490       2.75229      19.18750       139      s41647n2757e         0         0         0         0  
     140  hru0140                140      14.54395      41.67316       2.75461      11.33047       140      s41647n2757e         0         0         0         0  
     141  hru0141                141      14.48153      41.67936       2.76434      30.34914       141      s41647n2757e         0         0         0         0  
     142  hru0142                142      19.53758      41.67521       2.75742      18.04153       142      s41647n2757e         0         0         0         0  
     143  hru0143                143       1.24841      41.67953       2.75503      17.25000       143      s41647n2757e         0         0         0         0  
     144  hru0144                144       1.43567      41.68113       2.75624      16.69565       144      s41647n2757e         0         0         0         0  
     145  hru0145                145       0.56178      41.67889       2.76742      13.55556       145      s41647n2757e         0         0         0         0  
     146  hru0146                146      10.42421      41.68114       2.75594      18.19760       146      s41647n2757e         0         0         0         0  
     147  hru0147                147       8.98854      41.68204       2.76285      27.31250       147      s41647n2757e         0         0         0         0  
     148  hru0148                148      10.17452      41.68163       2.76476      21.04294       148      s41647n2757e         0         0         0         0  
     149  hru0149                149       4.74395      41.68053       2.75701      10.40789       149      s41647n2757e         0         0         0         0  
     150  hru0150                150       6.61656      41.68051       2.75702       9.22642       150      s41647n2757e         0         0         0         0  
     151  hru0151                151       1.12357      41.68076       2.75744      11.66667       151      s41647n2757e         0         0         0         0  
     152  hru0152                152       7.86497      41.66668       2.76508       6.00000       152      s41647n2757e         0         0         0         0  
     153  hru0153                153       2.30955      41.66641       2.76552       7.51351       153      s41647n2757e         0         0         0         0  
     154  hru0154                154      11.73503      41.66633       2.76536       4.75532       154      s41647n2757e         0         0         0         0  
     155  hru0155                155       8.86370      41.67257       2.76057       6.76761       155      s41647n2757e         0         0         0         0  
     156  hru0156                156       3.93248      41.67112       2.76176       7.57143       156      s41647n2757e         0         0         0         0  
     157  hru0157                157       1.99745      41.67354       2.76003       9.75000       157      s41647n2757e         0         0         0         0  
     158  hru0158                158       0.24968      41.66390       2.76777       7.00000       158      s41647n2757e         0         0         0         0  
     159  hru0159                159       0.62420      41.66393       2.76768       3.70000       159      s41647n2757e         0         0         0         0  
     160  hru0160                160       0.12484      41.66199       2.76883       4.50000       160      s41647n2757e         0         0         0         0  
     161  hru0161                161       2.24713      41.66119       2.77033       2.66667       161      s41647n2757e         0         0         0         0  
     162  hru0162                162       0.62420      41.66121       2.77051       5.50000       162      s41647n2757e         0         0         0         0  
     163  hru0163                163       0.81147      41.66099       2.77055       4.07692       163      s41647n2757e         0         0         0         0  
     164  hru0164                164       0.99873      41.66031       2.77210       4.25000       164      s41647n2757e         0         0         0         0  
     165  hru0165                165       1.56051      41.65976       2.77188       2.52000       165      s41647n2757e         0         0         0         0  
     166  hru0166                166       0.24968      41.65986       2.77236       4.75000       166      s41647n2757e         0         0         0         0  
     167  hru0167                167       6.42930      41.68068       2.73971      52.72816       167      s41647n2757e         0         0         0         0  
     168  hru0168                168       0.93631      41.68317       2.73762      31.00000       168      s41647n2757e         0         0         0         0  
     169  hru0169                169       0.06242      41.67995       2.74610      12.00000       169      s41647n2757e         0         0         0         0  
     170  hru0170                170      20.34905      41.67957       2.73944      59.90798       170      s41647n2757e         0         0         0         0  
     171  hru0171                171       2.80892      41.68035       2.74160      22.31111       171      s41647n2757e         0         0         0         0  
     172  hru0172                172       0.56178      41.68032       2.74356      17.00000       172      s41647n2757e         0         0         0         0  
     173  hru0173                173       3.99490      41.68094       2.73484      78.31250       173      s41647n2757e         0         0         0         0  
     174  hru0174                174       2.37197      41.67944       2.73507     125.44737       174      s41647n2757e         0         0         0         0  
     175  hru0175                175       3.49554      41.67925       2.73725      86.30357       175      s41647n2757e         0         0         0         0  
     176  hru0176                176      63.79364      41.72298       2.77118     181.00489       176      s41647n2757e         0         0         0         0  
     177  hru0177                177       1.49809      41.71330       2.75305      77.04167       177      s41739n2694e         0         0         0         0  
     178  hru0178                178       0.62420      41.71494       2.75707      81.80000       178      s41739n2694e         0         0         0         0  
     179  hru0179                179      57.67644      41.72148       2.77562     169.36039       179      s41647n2757e         0         0         0         0  
     180  hru0180                180       0.87389      41.71349       2.76798      65.21429       180      s41647n2757e         0         0         0         0  
     181  hru0181                181       1.74777      41.71591       2.76942      87.17857       181      s41647n2757e         0         0         0         0  