ls_unit.ele: written by SWAT+ editor v3.0.0 on 2024-06-21 16:08 for SWAT+ rev.61.0
      id  name                   obj_typ  obj_typ_no      bsn_frac      sub_frac      reg_frac  
       1  hru0001                    hru           1     5.7765E-4       0.12756       0.00000  
       2  hru0002                    hru           2     4.4341E-4       0.09792       0.00000  
       3  hru0003                    hru           3     5.9050E-4       0.13040       0.00000  
       4  hru0004                    hru           4     5.7836E-5       0.01277       0.00000  
       5  hru0005                    hru           5     1.3781E-4       0.03043       0.00000  
       6  hru0006                    hru           6     3.4987E-5       0.00773       0.00000  
       7  hru0007                    hru           7     3.4987E-5       0.00773       0.00000  
       8  hru0008                    hru           8     7.8543E-6       0.00173       0.00000  
       9  hru0009                    hru           9     2.8561E-6       0.00063       0.00000  
      10  hru0010                    hru          10     2.3563E-5       0.00520       0.00000  
      11  hru0011                    hru          11     1.9993E-5       0.00442       0.00000  
      12  hru0012                    hru          12     2.1421E-6       0.00047       0.00000  
      13  hru0013                    hru          13     2.4277E-5       0.00536       0.00000  
      14  hru0014                    hru          14     2.8561E-6       0.00063       0.00000  
      15  hru0015                    hru          15     1.0710E-5       0.00237       0.00000  
      16  hru0016                    hru          16     3.0418E-4       0.06717       0.00000  
      17  hru0017                    hru          17     7.1403E-6       0.00158       0.00000  
      18  hru0018                    hru          18     6.4263E-6       0.00142       0.00000  
      19  hru0019                    hru          19     1.4066E-4       0.03106       0.00000  
      20  hru0020                    hru          20     9.2824E-6       0.00205       0.00000  
      21  hru0021                    hru          21     5.4695E-4       0.12078       0.00000  
      22  hru0022                    hru          22     2.7133E-5       0.00599       0.00000  
      23  hru0023                    hru          23     4.2842E-6       0.00095       0.00000  
      24  hru0024                    hru          24     4.4984E-5       0.00993       0.00000  
      25  hru0025                    hru          25     2.8561E-6       0.00063       0.00000  
      26  hru0026                    hru          26     7.1403E-7       0.00016       0.00000  
      27  hru0027                    hru          27     8.9254E-5       0.01971       0.00000  
      28  hru0028                    hru          28     7.1403E-7       0.00016       0.00000  
      29  hru0029                    hru          29     1.8565E-5       0.00410       0.00000  
      30  hru0030                    hru          30     3.9272E-5       0.00867       0.00000  
      31  hru0031                    hru          31     1.7851E-5       0.00394       0.00000  
      32  hru0032                    hru          32     3.5701E-6       0.00079       0.00000  
      33  hru0033                    hru          33     6.7119E-5       0.01482       0.00000  
      34  hru0034                    hru          34     1.4138E-4       0.03122       0.00000  
      35  hru0035                    hru          35     1.2638E-4       0.02791       0.00000  
      36  hru0036                    hru          36     3.8558E-5       0.00851       0.00000  
      37  hru0037                    hru          37     2.8561E-6       0.00063       0.00000  
      38  hru0038                    hru          38     1.1424E-5       0.00252       0.00000  
      39  hru0039                    hru          39     5.7122E-6       0.00126       0.00000  
      40  hru0040                    hru          40     1.4281E-6       0.00032       0.00000  
      41  hru0041                    hru          41     1.1424E-5       0.00252       0.00000  
      42  hru0042                    hru          42     6.4263E-6       0.00142       0.00000  
      43  hru0043                    hru          43     6.0978E-4       0.13466       0.00000  
      44  hru0044                    hru          44     4.9982E-5       0.01104       0.00000  
      45  hru0045                    hru          45     9.4252E-5       0.02081       0.00000  
      46  hru0046                    hru          46     1.7137E-5       0.00378       0.00000  
      47  hru0047                    hru          47     8.8540E-5       0.01955       0.00000  
      48  hru0048                    hru          48     1.7851E-5       0.00394       0.00000  
      49  hru0049                    hru          49     2.8561E-6       0.00063       0.00000  
      50  hru0050                    hru          50     8.5660E-4       0.08660       0.00000  
      51  hru0051                    hru          51     4.4934E-5       0.00454       0.00000  
      52  hru0052                    hru          52     3.5662E-6       0.00036       0.00000  
      53  hru0053                    hru          53     2.5106E-4       0.02538       0.00000  
      54  hru0054                    hru          54     2.4963E-5       0.00252       0.00000  
      55  hru0055                    hru          55     9.2722E-6       0.00094       0.00000  
      56  hru0056                    hru          56     1.5977E-4       0.01615       0.00000  
      57  hru0057                    hru          57     1.4265E-6       0.00014       0.00000  
      58  hru0058                    hru          58     1.6619E-4       0.01680       0.00000  
      59  hru0059                    hru          59     4.9927E-5       0.00505       0.00000  
      60  hru0060                    hru          60     5.7059E-6       0.00058       0.00000  
      61  hru0061                    hru          61     1.1127E-4       0.01125       0.00000  
      62  hru0062                    hru          62     2.6461E-4       0.02675       0.00000  
      63  hru0063                    hru          63     2.5677E-5       0.00260       0.00000  
      64  hru0064                    hru          64     4.2795E-6       0.00043       0.00000  
      65  hru0065                    hru          65     1.4265E-6       0.00014       0.00000  
      66  hru0066                    hru          66     6.4192E-6       0.00065       0.00000  
      67  hru0067                    hru          67     7.1324E-7       0.00007       0.00000  
      68  hru0068                    hru          68     2.1397E-5       0.00216       0.00000  
      69  hru0069                    hru          69     6.4192E-6       0.00065       0.00000  
      70  hru0070                    hru          70     4.9927E-6       0.00050       0.00000  
      71  hru0071                    hru          71     2.5605E-4       0.02589       0.00000  
      72  hru0072                    hru          72     1.1483E-4       0.01161       0.00000  
      73  hru0073                    hru          73     1.7831E-5       0.00180       0.00000  
      74  hru0074                    hru          74     8.5589E-6       0.00087       0.00000  
      75  hru0075                    hru          75     1.7118E-5       0.00173       0.00000  
      76  hru0076                    hru          76     1.4265E-6       0.00014       0.00000  
      77  hru0077                    hru          77     1.9472E-4       0.01968       0.00000  
      78  hru0078                    hru          78     6.7758E-5       0.00685       0.00000  
      79  hru0079                    hru          79     1.2838E-5       0.00130       0.00000  
      80  hru0080                    hru          80     7.4890E-5       0.00757       0.00000  
      81  hru0081                    hru          81     6.0626E-5       0.00613       0.00000  
      82  hru0082                    hru          82     5.7059E-6       0.00058       0.00000  
      83  hru0083                    hru          83     1.0699E-5       0.00108       0.00000  
      84  hru0084                    hru          84     3.5662E-6       0.00036       0.00000  
      85  hru0085                    hru          85     2.2824E-5       0.00231       0.00000  
      86  hru0086                    hru          86     9.2722E-6       0.00094       0.00000  
      87  hru0087                    hru          87     2.1397E-6       0.00022       0.00000  
      88  hru0088                    hru          88     3.5662E-6       0.00036       0.00000  
      89  hru0089                    hru          89     4.2795E-6       0.00043       0.00000  
      90  hru0090                    hru          90     1.4978E-5       0.00151       0.00000  
      91  hru0091                    hru          91     2.1397E-5       0.00216       0.00000  
      92  hru0092                    hru          92     7.8457E-6       0.00079       0.00000  
      93  hru0093                    hru          93     2.8530E-6       0.00029       0.00000  
      94  hru0094                    hru          94     3.5662E-6       0.00036       0.00000  
      95  hru0095                    hru          95     3.6375E-5       0.00368       0.00000  
      96  hru0096                    hru          96     2.4963E-5       0.00252       0.00000  
      97  hru0097                    hru          97     4.2795E-6       0.00043       0.00000  
      98  hru0098                    hru          98     2.2824E-5       0.00231       0.00000  
      99  hru0099                    hru          99     3.5662E-6       0.00036       0.00000  
     100  hru0100                    hru         100     2.1397E-6       0.00022       0.00000  
     101  hru0101                    hru         101     7.0611E-5       0.00714       0.00000  
     102  hru0102                    hru         102     4.0655E-5       0.00411       0.00000  
     103  hru0103                    hru         103     3.1383E-5       0.00317       0.00000  
     104  hru0104                    hru         104     6.8257E-4       0.06900       0.00000  
     105  hru0105                    hru         105     8.6588E-4       0.08753       0.00000  
     106  hru0106                    hru         106     3.3451E-4       0.03382       0.00000  
     107  hru0107                    hru         107     2.6818E-4       0.02711       0.00000  
     108  hru0108                    hru         108     2.2966E-4       0.02322       0.00000  
     109  hru0109                    hru         109     1.1326E-3       0.11450       0.00000  
     110  hru0110                    hru         110     1.9258E-5       0.00195       0.00000  
     111  hru0111                    hru         111     6.2052E-5       0.00627       0.00000  
     112  hru0112                    hru         112     1.2981E-4       0.01312       0.00000  
     113  hru0113                    hru         113     3.6161E-4       0.03656       0.00000  
     114  hru0114                    hru         114     1.2981E-4       0.01312       0.00000  
     115  hru0115                    hru         115     3.2096E-5       0.00324       0.00000  
     116  hru0116                    hru         116     3.7089E-5       0.00375       0.00000  
     117  hru0117                    hru         117     1.7118E-5       0.00173       0.00000  
     118  hru0118                    hru         118     3.7089E-5       0.00375       0.00000  
     119  hru0119                    hru         119     4.9927E-6       0.00050       0.00000  
     120  hru0120                    hru         120     1.1412E-5       0.00115       0.00000  
     121  hru0121                    hru         121     1.4978E-5       0.00151       0.00000  
     122  hru0122                    hru         122     5.7059E-6       0.00058       0.00000  
     123  hru0123                    hru         123     5.7059E-6       0.00058       0.00000  
     124  hru0124                    hru         124     1.4265E-6       0.00014       0.00000  
     125  hru0125                    hru         125     2.4963E-5       0.00252       0.00000  
     126  hru0126                    hru         126     4.2795E-6       0.00043       0.00000  
     127  hru0127                    hru         127     2.8530E-6       0.00029       0.00000  
     128  hru0128                    hru         128     8.0596E-5       0.00815       0.00000  
     129  hru0129                    hru         129     3.7802E-5       0.00382       0.00000  
     130  hru0130                    hru         130     2.4963E-5       0.00252       0.00000  
     131  hru0131                    hru         131     7.8457E-6       0.00079       0.00000  
     132  hru0132                    hru         132     7.8457E-6       0.00079       0.00000  
     133  hru0133                    hru         133     8.5589E-6       0.00087       0.00000  
     134  hru0134                    hru         134     1.3552E-5       0.00137       0.00000  
     135  hru0135                    hru         135     2.8530E-6       0.00029       0.00000  
     136  hru0136                    hru         136     2.1397E-6       0.00022       0.00000  
     137  hru0137                    hru         137     7.1324E-6       0.00072       0.00000  
     138  hru0138                    hru         138     1.7118E-5       0.00173       0.00000  
     139  hru0139                    hru         139     2.2824E-5       0.00231       0.00000  
     140  hru0140                    hru         140     1.6619E-4       0.01680       0.00000  
     141  hru0141                    hru         141     1.6547E-4       0.01673       0.00000  
     142  hru0142                    hru         142     2.2324E-4       0.02257       0.00000  
     143  hru0143                    hru         143     1.4265E-5       0.00144       0.00000  
     144  hru0144                    hru         144     1.6405E-5       0.00166       0.00000  
     145  hru0145                    hru         145     6.4192E-6       0.00065       0.00000  
     146  hru0146                    hru         146     1.1911E-4       0.01204       0.00000  
     147  hru0147                    hru         147     1.0271E-4       0.01038       0.00000  
     148  hru0148                    hru         148     1.1626E-4       0.01175       0.00000  
     149  hru0149                    hru         149     5.4206E-5       0.00548       0.00000  
     150  hru0150                    hru         150     7.5604E-5       0.00764       0.00000  
     151  hru0151                    hru         151     1.2838E-5       0.00130       0.00000  
     152  hru0152                    hru         152     8.9869E-5       0.00909       0.00000  
     153  hru0153                    hru         153     2.6390E-5       0.00267       0.00000  
     154  hru0154                    hru         154     1.3409E-4       0.01356       0.00000  
     155  hru0155                    hru         155     1.0128E-4       0.01024       0.00000  
     156  hru0156                    hru         156     4.4934E-5       0.00454       0.00000  
     157  hru0157                    hru         157     2.2824E-5       0.00231       0.00000  
     158  hru0158                    hru         158     2.8530E-6       0.00029       0.00000  
     159  hru0159                    hru         159     7.1324E-6       0.00072       0.00000  
     160  hru0160                    hru         160     1.4265E-6       0.00014       0.00000  
     161  hru0161                    hru         161     2.5677E-5       0.00260       0.00000  
     162  hru0162                    hru         162     7.1324E-6       0.00072       0.00000  
     163  hru0163                    hru         163     9.2722E-6       0.00094       0.00000  
     164  hru0164                    hru         164     1.1412E-5       0.00115       0.00000  
     165  hru0165                    hru         165     1.7831E-5       0.00180       0.00000  
     166  hru0166                    hru         166     2.8530E-6       0.00029       0.00000  
     167  hru0167                    hru         167     7.3464E-5       0.00743       0.00000  
     168  hru0168                    hru         168     1.0699E-5       0.00108       0.00000  
     169  hru0169                    hru         169     7.1324E-7       0.00007       0.00000  
     170  hru0170                    hru         170     2.3252E-4       0.02351       0.00000  
     171  hru0171                    hru         171     3.2096E-5       0.00324       0.00000  
     172  hru0172                    hru         172     6.4192E-6       0.00065       0.00000  
     173  hru0173                    hru         173     4.5648E-5       0.00461       0.00000  
     174  hru0174                    hru         174     2.7103E-5       0.00274       0.00000  
     175  hru0175                    hru         175     3.9942E-5       0.00404       0.00000  
     176  hru0176                    hru         176     7.2893E-4       0.05208       0.00000  
     177  hru0177                    hru         177     1.7118E-5       0.00122       0.00000  
     178  hru0178                    hru         178     7.1324E-6       0.00051       0.00000  
     179  hru0179                    hru         179     6.5904E-4       0.04709       0.00000  
     180  hru0180                    hru         180     9.9854E-6       0.00071       0.00000  
     181  hru0181                    hru         181     1.9971E-5       0.00143       0.00000  
     182  hru0182                    hru         182     1.5406E-3       0.11007       0.00000  
     183  hru0183                    hru         183     2.3537E-5       0.00168       0.00000  
     184  hru0184                    hru         184     4.9927E-5       0.00357       0.00000  
     185  hru0185                    hru         185     6.1909E-4       0.04423       0.00000  
     186  hru0186                    hru         186     4.4221E-5       0.00316       0.00000  
     187  hru0187                    hru         187     4.9927E-6       0.00036       0.00000  
     188  hru0188                    hru         188     1.3338E-4       0.00953       0.00000  
     189  hru0189                    hru         189     7.1324E-7       0.00005       0.00000  
     190  hru0190                    hru         190     7.8457E-6       0.00056       0.00000  
     191  hru0191                    hru         191     1.4265E-6       0.00010       0.00000  
     192  hru0192                    hru         192     4.7502E-4       0.03394       0.00000  
     193  hru0193                    hru         193     7.5604E-5       0.00540       0.00000  
     194  hru0194                    hru         194     1.7831E-5       0.00127       0.00000  
     195  hru0195                    hru         195     4.5576E-4       0.03256       0.00000  
     196  hru0196                    hru         196     4.4934E-5       0.00321       0.00000  
     197  hru0197                    hru         197     7.1324E-6       0.00051       0.00000  
     198  hru0198                    hru         198     1.9329E-4       0.01381       0.00000  
     199  hru0199                    hru         199     1.9971E-5       0.00143       0.00000  
     200  hru0200                    hru         200     5.7059E-6       0.00041       0.00000  
     201  hru0201                    hru         201     1.0770E-4       0.00770       0.00000  
     202  hru0202                    hru         202     7.8457E-6       0.00056       0.00000  
     203  hru0203                    hru         203     2.1397E-6       0.00015       0.00000  
     204  hru0204                    hru         204     2.3537E-5       0.00168       0.00000  
     205  hru0205                    hru         205     5.7059E-6       0.00041       0.00000  
     206  hru0206                    hru         206     7.1324E-7       0.00005       0.00000  
     207  hru0207                    hru         207     1.9971E-5       0.00143       0.00000  
     208  hru0208                    hru         208     1.4265E-5       0.00102       0.00000  
     209  hru0209                    hru         209     1.2838E-5       0.00092       0.00000  
     210  hru0210                    hru         210     9.9854E-5       0.00713       0.00000  
     211  hru0211                    hru         211     1.3152E-3       0.09397       0.00000  
     212  hru0212                    hru         212     4.4221E-5       0.00316       0.00000  
     213  hru0213                    hru         213     3.2381E-4       0.02314       0.00000  
     214  hru0214                    hru         214     1.2125E-5       0.00087       0.00000  
     215  hru0215                    hru         215     7.6317E-5       0.00545       0.00000  
     216  hru0216                    hru         216     1.0057E-3       0.07185       0.00000  
     217  hru0217                    hru         217     3.8515E-5       0.00275       0.00000  
     218  hru0218                    hru         218     7.0611E-5       0.00505       0.00000  
     219  hru0219                    hru         219     2.7175E-4       0.01942       0.00000  
     220  hru0220                    hru         220     2.2824E-5       0.00163       0.00000  
     221  hru0221                    hru         221     8.5589E-6       0.00061       0.00000  
     222  hru0222                    hru         222     4.2081E-5       0.00301       0.00000  
     223  hru0223                    hru         223     6.1339E-5       0.00438       0.00000  
     224  hru0224                    hru         224     1.7831E-5       0.00127       0.00000  
     225  hru0225                    hru         225     2.1397E-6       0.00015       0.00000  
     226  hru0226                    hru         226     2.1397E-6       0.00015       0.00000  
     227  hru0227                    hru         227     7.1324E-7       0.00005       0.00000  
     228  hru0228                    hru         228     7.3464E-5       0.00525       0.00000  
     229  hru0229                    hru         229     2.8530E-6       0.00020       0.00000  
     230  hru0230                    hru         230     7.1324E-7       0.00005       0.00000  
     231  hru0231                    hru         231     1.8687E-4       0.01335       0.00000  
     232  hru0232                    hru         232     4.2795E-6       0.00031       0.00000  
     233  hru0233                    hru         233     7.1324E-7       0.00005       0.00000  
     234  hru0234                    hru         234     3.4236E-5       0.00245       0.00000  
     235  hru0235                    hru         235     5.7059E-6       0.00041       0.00000  
     236  hru0236                    hru         236     8.5589E-6       0.00061       0.00000  
     237  hru0237                    hru         237     1.4265E-6       0.00010       0.00000  
     238  hru0238                    hru         238     3.5662E-6       0.00025       0.00000  
     239  hru0239                    hru         239     5.1353E-5       0.00367       0.00000  
     240  hru0240                    hru         240     3.7802E-5       0.00270       0.00000  
     241  hru0241                    hru         241     3.5662E-6       0.00025       0.00000  
     242  hru0242                    hru         242     5.7773E-4       0.04128       0.00000  
     243  hru0243                    hru         243     2.2182E-4       0.01585       0.00000  
     244  hru0244                    hru         244     4.3508E-5       0.00311       0.00000  
     245  hru0245                    hru         245     1.5763E-4       0.01126       0.00000  
     246  hru0246                    hru         246     2.9243E-5       0.00209       0.00000  
     247  hru0247                    hru         247     1.5763E-4       0.01126       0.00000  
     248  hru0248                    hru         248     6.8471E-5       0.00489       0.00000  
     249  hru0249                    hru         249     1.4978E-5       0.00107       0.00000  
     250  hru0250                    hru         250     3.5662E-5       0.00255       0.00000  
     251  hru0251                    hru         251     4.2795E-6       0.00031       0.00000  
     252  hru0252                    hru         252     2.0684E-4       0.01478       0.00000  
     253  hru0253                    hru         253     4.1225E-4       0.02946       0.00000  
     254  hru0254                    hru         254     3.2666E-4       0.02334       0.00000  
     255  hru0255                    hru         255     2.1397E-5       0.00153       0.00000  
     256  hru0256                    hru         256     1.8544E-5       0.00132       0.00000  
     257  hru0257                    hru         257     2.1397E-6       0.00015       0.00000  
     258  hru0258                    hru         258     9.9854E-6       0.00071       0.00000  
     259  hru0259                    hru         259     4.7074E-5       0.00336       0.00000  
     260  hru0260                    hru         260     6.5618E-5       0.00469       0.00000  
     261  hru0261                    hru         261     3.4236E-5       0.00245       0.00000  
     262  hru0262                    hru         262     5.0640E-5       0.00362       0.00000  
     263  hru0263                    hru         263     7.6317E-5       0.00545       0.00000  
     264  hru0264                    hru         264     2.3537E-5       0.00168       0.00000  
     265  hru0265                    hru         265     9.9854E-6       0.00071       0.00000  
     266  hru0266                    hru         266     3.5662E-5       0.00255       0.00000  
     267  hru0267                    hru         267     1.8830E-4       0.01345       0.00000  
     268  hru0268                    hru         268     1.9329E-4       0.01381       0.00000  
     269  hru0269                    hru         269     1.9329E-4       0.01381       0.00000  
     270  hru0270                    hru         270     2.8530E-6       0.00020       0.00000  
     271  hru0271                    hru         271     7.1324E-7       0.00005       0.00000  
     272  hru0272                    hru         272     1.7831E-5       0.00127       0.00000  
     273  hru0273                    hru         273     1.2125E-5       0.00087       0.00000  
     274  hru0274                    hru         274     5.9912E-5       0.00428       0.00000  
     275  hru0275                    hru         275     1.1982E-4       0.00856       0.00000  
     276  hru0276                    hru         276     1.9258E-5       0.00138       0.00000  
     277  hru0277                    hru         277     9.2008E-5       0.00657       0.00000  
     278  hru0278                    hru         278     2.4607E-4       0.01758       0.00000  
     279  hru0279                    hru         279     7.0754E-4       0.05055       0.00000  
     280  hru0280                    hru         280     5.3493E-5       0.00382       0.00000  
     281  hru0281                    hru         281     2.9956E-5       0.00214       0.00000  
     282  hru0282                    hru         282     1.4265E-6       0.00010       0.00000  
     283  hru0283                    hru         283     8.5589E-6       0.00061       0.00000  
     284  hru0284                    hru         284     1.4265E-6       0.00010       0.00000  
     285  hru0285                    hru         285     3.7802E-5       0.00270       0.00000  
     286  hru0286                    hru         286     3.4236E-5       0.00245       0.00000  
     287  hru0287                    hru         287     2.7103E-5       0.00194       0.00000  
     288  hru0288                    hru         288     4.6361E-5       0.00331       0.00000  
     289  hru0289                    hru         289     2.3537E-5       0.00168       0.00000  
     290  hru0290                    hru         290     2.2824E-5       0.00163       0.00000  
     291  hru0291                    hru         291     2.1397E-6       0.00015       0.00000  
     292  hru0292                    hru         292     9.9854E-6       0.00071       0.00000  
     293  hru0293                    hru         293     3.5662E-6       0.00025       0.00000  
     294  hru0294                    hru         294     4.5648E-5       0.09624       0.00000  
     295  hru0295                    hru         295     3.0669E-5       0.06466       0.00000  
     296  hru0296                    hru         296     9.9854E-6       0.02105       0.00000  
     297  hru0297                    hru         297     4.2081E-5       0.08872       0.00000  
     298  hru0298                    hru         298     1.0699E-5       0.02256       0.00000  
     299  hru0299                    hru         299     5.7059E-5       0.12030       0.00000  
     300  hru0300                    hru         300     4.2795E-6       0.00902       0.00000  
     301  hru0301                    hru         301     1.4265E-6       0.00301       0.00000  
     302  hru0302                    hru         302     4.2795E-6       0.00902       0.00000  
     303  hru0303                    hru         303     1.9258E-5       0.04060       0.00000  
     304  hru0304                    hru         304     6.4905E-5       0.13684       0.00000  