ls_unit.def: written by SWAT+ editor v3.0.0 on 2024-06-21 16:08 for SWAT+ rev.61.0
119
      id              name          area  elem_tot  elements  
       1           rtu0010    4123.30368         2      1208     -1259  
       2           rtu0020    1507.95177         2      5152     -5176  
       3           rtu0030     113.97963         2      1260     -1294  
       4           rtu0040     123.59237         2      1295     -1318  
       5           rtu0050      89.19874         2      1387     -1401  
       6           rtu0060      14.98089         2      1402     -1416  
       7           rtu0070      11.79745         2      1501     -1506  
       8           rtu0080     133.95416         2      1589     -1621  
       9           rtu0090       1.24841         2      1622     -1626  
      10           rtu0100     547.67650         2      1675     -1727  
      11           rtu0110     148.24843         2      2014     -2045  
      12           rtu0120       1.49809         2      2289     -2291  
      13           rtu0130      20.09937         2      2457     -2468  
      14           rtu0140     971.63579         2      3416     -3458  
      15           rtu0150     246.81022         2      2726     -2762  
      16           rtu0160     766.95933         2      5177     -5195  
      17           rtu0170      66.85224         2      2292     -2311  
      18           rtu0180     261.47901         2      2129     -2163  
      19           rtu0190    2195.32511         2      1319     -1386  
      20           rtu0200     723.51474         2      1818     -1876  
      21           rtu0210    2191.33020         2      3372     -3415  
      22           rtu0220    2436.76717         2      2800     -2942  
      23           rtu0230    3242.61441         2      3598     -3644  
      24           rtu0240    5001.30889         2      1728     -1817  
      25           rtu0250    1910.31361         2      1627     -1674  
      26           rtu0260     396.30705         2         1       -49  
      27           rtu0270     865.70838         2        50      -175  
      28           rtu0280       2.24713         2       466      -471  
      29           rtu0290      50.37325         2       472      -492  
      30           rtu0300     121.40766         2       595      -642  
      31           rtu0310    1150.15810         2       872      -993  
      32           rtu0320      11.79745         2       994      -998  
      33           rtu0330      23.84459         2      1123     -1139  
      34           rtu0340     690.55677         2      1140     -1207  
      35           rtu0350     556.60262         2      3028     -3108  
      36           rtu0360    1651.08173         2      3645     -3747  
      37           rtu0370       0.18726         2      4006     -4007  
      38           rtu0380      12.54650         2      4214     -4222  
      39           rtu0390    1267.38359         2      4498     -4565  
      40           rtu0400      16.91593         2      4705     -4718  
      41           rtu0410    1046.41541         2      4719     -4754  
      42           rtu0420       3.49554         2      4770     -4776  
      43           rtu0430     680.81919         2      4927     -4968  
      44           rtu0440    1987.90215         2      4997     -5075  
      45           rtu0450      21.90956         2      5088     -5091  
      46           rtu0460     692.80391         2      5092     -5106  
      47           rtu0470    1216.19887         2      5117     -5144  
      48           rtu0480       0.93631         2      3215     -3216  
      49           rtu0490     162.85480         2      3217     -3254  
      50           rtu0500     128.77326         2      3302     -3312  
      51           rtu0510     115.60256         2      3313     -3330  
      52           rtu0520     111.17071         2      4777     -4800  
      53           rtu0530      17.41529         2       315      -330  
      54           rtu0540    1842.96201         2      4859     -4926  
      55           rtu0550    1688.84606         2      4801     -4858  
      56           rtu0560    1626.98746         2       643      -745  
      57           rtu0570    1692.65371         2      3900     -4005  
      58           rtu0580     605.66504         2      4353     -4394  
      59           rtu0590       4.74395         2      4008     -4013  
      60           rtu0600      49.99873         2      4043     -4054  
      61           rtu0610     508.91344         2      4014     -4042  
      62           rtu0620      34.14395         2      4102     -4108  
      63           rtu0630     768.83194         2      4055     -4101  
      64           rtu0640    1396.21928         2      4182     -4213  
      65           rtu0650    1228.05875         2      3536     -3597  
      66           rtu0660       0.31210         2      3502     -3504  
      67           rtu0670    1094.79122         2      3505     -3535  
      68           rtu0680    1003.59503         2       999     -1068  
      69           rtu0690     603.35549         2      1069     -1122  
      70           rtu0700    1428.80272         2      2312     -2397  
      71           rtu0710    1011.14789         2      2398     -2456  
      72           rtu0720     287.94526         2      2763     -2799  
      73           rtu0730    1346.78233         2      2164     -2288  
      74           rtu0740      79.39874         2      4473     -4479  
      75           rtu0750      48.37580         2      4480     -4483  
      76           rtu0760    1573.18108         2       331      -465  
      77           rtu0770    1224.87531         2       176      -293  
      78           rtu0780      41.50956         2       294      -314  
      79           rtu0790    1773.23843         2       493      -594  
      80           rtu0800    1211.39250         2       746      -871  
      81           rtu0810      31.45988         2      1483     -1500  
      82           rtu0820    1450.40018         2      1417     -1482  
      83           rtu0830    2389.45252         2      2943     -3027  
      84           rtu0840     269.09430         2      1877     -1929  
      85           rtu0850     346.80769         2      4395     -4426  
      86           rtu0860     155.80129         2      4607     -4623  
      87           rtu0870     216.91085         2      5107     -5116  
      88           rtu0880     596.48924         2      5196     -5209  
      89           rtu0890     960.58738         2      4679     -4704  
      90           rtu0900     488.56439         2      4624     -4655  
      91           rtu0910     789.61793         2      2680     -2725  
      92           rtu0920     867.95552         2      2469     -2558  
      93           rtu0930     481.13636         2      2633     -2679  
      94           rtu0940     920.45107         2      1930     -2013  
      95           rtu0950     380.32743         2      4484     -4497  
      96           rtu0960     556.47777         2      5210     -5224  
      97           rtu0970     786.93385         2      2046     -2128  
      98           rtu0980     778.81920         2      2559     -2632  
      99           rtu0990     408.79113         2      1507     -1588  
     100           rtu1000    1559.32376         2      3109     -3214  
     101           rtu1010     409.66502         2      3255     -3301  
     102           rtu1020    1406.51864         2      3331     -3371  
     103           rtu1030     200.55671         2      3459     -3501  
     104           rtu1040     574.08032         2      3748     -3816  
     105           rtu1050     669.33384         2      3817     -3874  
     106           rtu1060      58.86243         2      3875     -3899  
     107           rtu1070     132.26881         2      4162     -4181  
     108           rtu1080      46.12867         2      4150     -4161  
     109           rtu1090     265.34908         2      4115     -4149  
     110           rtu1100      33.89427         2      4109     -4114  
     111           rtu1110    1847.70596         2      4223     -4313  
     112           rtu1120     176.71212         2      4314     -4352  
     113           rtu1130    1142.85492         2      4427     -4472  
     114           rtu1140     432.51088         2      4566     -4606  
     115           rtu1150    1083.68039         2      4656     -4678  
     116           rtu1160      45.31720         2      4755     -4769  
     117           rtu1170      86.14014         2      4969     -4996  
     118           rtu1180     363.84845         2      5076     -5087  
     119           rtu1190      72.96944         2      5145     -5151  
