object.cnt: written by SWAT+ editor v3.0.0 on 2024-06-21 16:07 for SWAT+ rev.61.0
name                   ls_area      tot_area       obj       hru      lhru       rtu      gwfl       aqu       cha       res       rec      exco       dlr       can       pmp       out      lcha     aqu2d       hrd       wro  
Tordera            87516.38256   87516.38256      5582      5224         0       119         0       120         0         0         0         0         0         0         0         0       119         0         0         0  
