pcp.cli: Precipitation file names - file written by SWAT+ editor 2024-02-27 21:48:55.984014
filename
pAngles.pcp
pArbucies.pcp
pCampllong.pcp
pCassa.pcp
pCeloni.pcp
pDosrius.pcp
pEmbSusqueda.pcp
pFarners.pcp
pFogarsSelva.pcp
pFornells.pcp
pGirona.pcp
pMalgrat.pcp
pTagamanent.pcp
pVilobi.pcp
