rout_unit.def: written by SWAT+ editor v3.0.0 on 2024-06-21 16:07 for SWAT+ rev.61.0
      id              name  elem_tot  elements  
       1           rtu0010         2      1208     -1259  
       2           rtu0020         2      5152     -5176  
       3           rtu0030         2      1260     -1294  
       4           rtu0040         2      1295     -1318  
       5           rtu0050         2      1387     -1401  
       6           rtu0060         2      1402     -1416  
       7           rtu0070         2      1501     -1506  
       8           rtu0080         2      1589     -1621  
       9           rtu0090         2      1622     -1626  
      10           rtu0100         2      1675     -1727  
      11           rtu0110         2      2014     -2045  
      12           rtu0120         2      2289     -2291  
      13           rtu0130         2      2457     -2468  
      14           rtu0140         2      3416     -3458  
      15           rtu0150         2      2726     -2762  
      16           rtu0160         2      5177     -5195  
      17           rtu0170         2      2292     -2311  
      18           rtu0180         2      2129     -2163  
      19           rtu0190         2      1319     -1386  
      20           rtu0200         2      1818     -1876  
      21           rtu0210         2      3372     -3415  
      22           rtu0220         2      2800     -2942  
      23           rtu0230         2      3598     -3644  
      24           rtu0240         2      1728     -1817  
      25           rtu0250         2      1627     -1674  
      26           rtu0260         2         1       -49  
      27           rtu0270         2        50      -175  
      28           rtu0280         2       466      -471  
      29           rtu0290         2       472      -492  
      30           rtu0300         2       595      -642  
      31           rtu0310         2       872      -993  
      32           rtu0320         2       994      -998  
      33           rtu0330         2      1123     -1139  
      34           rtu0340         2      1140     -1207  
      35           rtu0350         2      3028     -3108  
      36           rtu0360         2      3645     -3747  
      37           rtu0370         2      4006     -4007  
      38           rtu0380         2      4214     -4222  
      39           rtu0390         2      4498     -4565  
      40           rtu0400         2      4705     -4718  
      41           rtu0410         2      4719     -4754  
      42           rtu0420         2      4770     -4776  
      43           rtu0430         2      4927     -4968  
      44           rtu0440         2      4997     -5075  
      45           rtu0450         2      5088     -5091  
      46           rtu0460         2      5092     -5106  
      47           rtu0470         2      5117     -5144  
      48           rtu0480         2      3215     -3216  
      49           rtu0490         2      3217     -3254  
      50           rtu0500         2      3302     -3312  
      51           rtu0510         2      3313     -3330  
      52           rtu0520         2      4777     -4800  
      53           rtu0530         2       315      -330  
      54           rtu0540         2      4859     -4926  
      55           rtu0550         2      4801     -4858  
      56           rtu0560         2       643      -745  
      57           rtu0570         2      3900     -4005  
      58           rtu0580         2      4353     -4394  
      59           rtu0590         2      4008     -4013  
      60           rtu0600         2      4043     -4054  
      61           rtu0610         2      4014     -4042  
      62           rtu0620         2      4102     -4108  
      63           rtu0630         2      4055     -4101  
      64           rtu0640         2      4182     -4213  
      65           rtu0650         2      3536     -3597  
      66           rtu0660         2      3502     -3504  
      67           rtu0670         2      3505     -3535  
      68           rtu0680         2       999     -1068  
      69           rtu0690         2      1069     -1122  
      70           rtu0700         2      2312     -2397  
      71           rtu0710         2      2398     -2456  
      72           rtu0720         2      2763     -2799  
      73           rtu0730         2      2164     -2288  
      74           rtu0740         2      4473     -4479  
      75           rtu0750         2      4480     -4483  
      76           rtu0760         2       331      -465  
      77           rtu0770         2       176      -293  
      78           rtu0780         2       294      -314  
      79           rtu0790         2       493      -594  
      80           rtu0800         2       746      -871  
      81           rtu0810         2      1483     -1500  
      82           rtu0820         2      1417     -1482  
      83           rtu0830         2      2943     -3027  
      84           rtu0840         2      1877     -1929  
      85           rtu0850         2      4395     -4426  
      86           rtu0860         2      4607     -4623  
      87           rtu0870         2      5107     -5116  
      88           rtu0880         2      5196     -5209  
      89           rtu0890         2      4679     -4704  
      90           rtu0900         2      4624     -4655  
      91           rtu0910         2      2680     -2725  
      92           rtu0920         2      2469     -2558  
      93           rtu0930         2      2633     -2679  
      94           rtu0940         2      1930     -2013  
      95           rtu0950         2      4484     -4497  
      96           rtu0960         2      5210     -5224  
      97           rtu0970         2      2046     -2128  
      98           rtu0980         2      2559     -2632  
      99           rtu0990         2      1507     -1588  
     100           rtu1000         2      3109     -3214  
     101           rtu1010         2      3255     -3301  
     102           rtu1020         2      3331     -3371  
     103           rtu1030         2      3459     -3501  
     104           rtu1040         2      3748     -3816  
     105           rtu1050         2      3817     -3874  
     106           rtu1060         2      3875     -3899  
     107           rtu1070         2      4162     -4181  
     108           rtu1080         2      4150     -4161  
     109           rtu1090         2      4115     -4149  
     110           rtu1100         2      4109     -4114  
     111           rtu1110         2      4223     -4313  
     112           rtu1120         2      4314     -4352  
     113           rtu1130         2      4427     -4472  
     114           rtu1140         2      4566     -4606  
     115           rtu1150         2      4656     -4678  
     116           rtu1160         2      4755     -4769  
     117           rtu1170         2      4969     -4996  
     118           rtu1180         2      5076     -5087  
     119           rtu1190         2      5145     -5151  
