rout_unit.ele: written by SWAT+ editor v3.0.0 on 2024-06-21 16:07 for SWAT+ rev.61.0
      id  name                   obj_typ    obj_id          frac               dlr  
       1  hru0001                    hru         1     1.2756E-1                 0  
       2  hru0002                    hru         2     9.7919E-2                 0  
       3  hru0003                    hru         3     1.3040E-1                 0  
       4  hru0004                    hru         4     1.2772E-2                 0  
       5  hru0005                    hru         5     3.0432E-2                 0  
       6  hru0006                    hru         6     7.7263E-3                 0  
       7  hru0007                    hru         7     7.7263E-3                 0  
       8  hru0008                    hru         8     1.7345E-3                 0  
       9  hru0009                    hru         9     6.3072E-4                 0  
      10  hru0010                    hru        10     5.2034E-3                 0  
      11  hru0011                    hru        11     4.4150E-3                 0  
      12  hru0012                    hru        12     4.7304E-4                 0  
      13  hru0013                    hru        13     5.3611E-3                 0  
      14  hru0014                    hru        14     6.3072E-4                 0  
      15  hru0015                    hru        15     2.3652E-3                 0  
      16  hru0016                    hru        16     6.7171E-2                 0  
      17  hru0017                    hru        17     1.5768E-3                 0  
      18  hru0018                    hru        18     1.4191E-3                 0  
      19  hru0019                    hru        19     3.1063E-2                 0  
      20  hru0020                    hru        20     2.0498E-3                 0  
      21  hru0021                    hru        21     1.2078E-1                 0  
      22  hru0022                    hru        22     5.9918E-3                 0  
      23  hru0023                    hru        23     9.4607E-4                 0  
      24  hru0024                    hru        24     9.9338E-3                 0  
      25  hru0025                    hru        25     6.3072E-4                 0  
      26  hru0026                    hru        26     1.5768E-4                 0  
      27  hru0027                    hru        27     1.9710E-2                 0  
      28  hru0028                    hru        28     1.5768E-4                 0  
      29  hru0029                    hru        29     4.0997E-3                 0  
      30  hru0030                    hru        30     8.6723E-3                 0  
      31  hru0031                    hru        31     3.9420E-3                 0  
      32  hru0032                    hru        32     7.8839E-4                 0  
      33  hru0033                    hru        33     1.4822E-2                 0  
      34  hru0034                    hru        34     3.1220E-2                 0  
      35  hru0035                    hru        35     2.7909E-2                 0  
      36  hru0036                    hru        36     8.5147E-3                 0  
      37  hru0037                    hru        37     6.3072E-4                 0  
      38  hru0038                    hru        38     2.5229E-3                 0  
      39  hru0039                    hru        39     1.2614E-3                 0  
      40  hru0040                    hru        40     3.1536E-4                 0  
      41  hru0041                    hru        41     2.5229E-3                 0  
      42  hru0042                    hru        42     1.4191E-3                 0  
      43  hru0043                    hru        43     1.3466E-1                 0  
      44  hru0044                    hru        44     1.1038E-2                 0  
      45  hru0045                    hru        45     2.0814E-2                 0  
      46  hru0046                    hru        46     3.7843E-3                 0  
      47  hru0047                    hru        47     1.9552E-2                 0  
      48  hru0048                    hru        48     3.9420E-3                 0  
      49  hru0049                    hru        49     6.3072E-4                 0  
      50  hru0050                    hru        50     8.6596E-2                 0  
      51  hru0051                    hru        51     4.5425E-3                 0  
      52  hru0052                    hru        52     3.6052E-4                 0  
      53  hru0053                    hru        53     2.5380E-2                 0  
      54  hru0054                    hru        54     2.5236E-3                 0  
      55  hru0055                    hru        55     9.3734E-4                 0  
      56  hru0056                    hru        56     1.6151E-2                 0  
      57  hru0057                    hru        57     1.4421E-4                 0  
      58  hru0058                    hru        58     1.6800E-2                 0  
      59  hru0059                    hru        59     5.0472E-3                 0  
      60  hru0060                    hru        60     5.7683E-4                 0  
      61  hru0061                    hru        61     1.1248E-2                 0  
      62  hru0062                    hru        62     2.6750E-2                 0  
      63  hru0063                    hru        63     2.5957E-3                 0  
      64  hru0064                    hru        64     4.3262E-4                 0  
      65  hru0065                    hru        65     1.4421E-4                 0  
      66  hru0066                    hru        66     6.4893E-4                 0  
      67  hru0067                    hru        67     7.2103E-5                 0  
      68  hru0068                    hru        68     2.1631E-3                 0  
      69  hru0069                    hru        69     6.4893E-4                 0  
      70  hru0070                    hru        70     5.0472E-4                 0  
      71  hru0071                    hru        71     2.5885E-2                 0  
      72  hru0072                    hru        72     1.1609E-2                 0  
      73  hru0073                    hru        73     1.8026E-3                 0  
      74  hru0074                    hru        74     8.6524E-4                 0  
      75  hru0075                    hru        75     1.7305E-3                 0  
      76  hru0076                    hru        76     1.4421E-4                 0  
      77  hru0077                    hru        77     1.9684E-2                 0  
      78  hru0078                    hru        78     6.8498E-3                 0  
      79  hru0079                    hru        79     1.2979E-3                 0  
      80  hru0080                    hru        80     7.5708E-3                 0  
      81  hru0081                    hru        81     6.1288E-3                 0  
      82  hru0082                    hru        82     5.7683E-4                 0  
      83  hru0083                    hru        83     1.0815E-3                 0  
      84  hru0084                    hru        84     3.6052E-4                 0  
      85  hru0085                    hru        85     2.3073E-3                 0  
      86  hru0086                    hru        86     9.3734E-4                 0  
      87  hru0087                    hru        87     2.1631E-4                 0  
      88  hru0088                    hru        88     3.6052E-4                 0  
      89  hru0089                    hru        89     4.3262E-4                 0  
      90  hru0090                    hru        90     1.5142E-3                 0  
      91  hru0091                    hru        91     2.1631E-3                 0  
      92  hru0092                    hru        92     7.9314E-4                 0  
      93  hru0093                    hru        93     2.8841E-4                 0  
      94  hru0094                    hru        94     3.6052E-4                 0  
      95  hru0095                    hru        95     3.6773E-3                 0  
      96  hru0096                    hru        96     2.5236E-3                 0  
      97  hru0097                    hru        97     4.3262E-4                 0  
      98  hru0098                    hru        98     2.3073E-3                 0  
      99  hru0099                    hru        99     3.6052E-4                 0  
     100  hru0100                    hru       100     2.1631E-4                 0  
     101  hru0101                    hru       101     7.1382E-3                 0  
     102  hru0102                    hru       102     4.1099E-3                 0  
     103  hru0103                    hru       103     3.1725E-3                 0  
     104  hru0104                    hru       104     6.9003E-2                 0  
     105  hru0105                    hru       105     8.7533E-2                 0  
     106  hru0106                    hru       106     3.3816E-2                 0  
     107  hru0107                    hru       107     2.7111E-2                 0  
     108  hru0108                    hru       108     2.3217E-2                 0  
     109  hru0109                    hru       109     1.1450E-1                 0  
     110  hru0110                    hru       110     1.9468E-3                 0  
     111  hru0111                    hru       111     6.2730E-3                 0  
     112  hru0112                    hru       112     1.3123E-2                 0  
     113  hru0113                    hru       113     3.6556E-2                 0  
     114  hru0114                    hru       114     1.3123E-2                 0  
     115  hru0115                    hru       115     3.2446E-3                 0  
     116  hru0116                    hru       116     3.7494E-3                 0  
     117  hru0117                    hru       117     1.7305E-3                 0  
     118  hru0118                    hru       118     3.7494E-3                 0  
     119  hru0119                    hru       119     5.0472E-4                 0  
     120  hru0120                    hru       120     1.1537E-3                 0  
     121  hru0121                    hru       121     1.5142E-3                 0  
     122  hru0122                    hru       122     5.7683E-4                 0  
     123  hru0123                    hru       123     5.7683E-4                 0  
     124  hru0124                    hru       124     1.4421E-4                 0  
     125  hru0125                    hru       125     2.5236E-3                 0  
     126  hru0126                    hru       126     4.3262E-4                 0  
     127  hru0127                    hru       127     2.8841E-4                 0  
     128  hru0128                    hru       128     8.1477E-3                 0  
     129  hru0129                    hru       129     3.8215E-3                 0  
     130  hru0130                    hru       130     2.5236E-3                 0  
     131  hru0131                    hru       131     7.9314E-4                 0  
     132  hru0132                    hru       132     7.9314E-4                 0  
     133  hru0133                    hru       133     8.6524E-4                 0  
     134  hru0134                    hru       134     1.3700E-3                 0  
     135  hru0135                    hru       135     2.8841E-4                 0  
     136  hru0136                    hru       136     2.1631E-4                 0  
     137  hru0137                    hru       137     7.2103E-4                 0  
     138  hru0138                    hru       138     1.7305E-3                 0  
     139  hru0139                    hru       139     2.3073E-3                 0  
     140  hru0140                    hru       140     1.6800E-2                 0  
     141  hru0141                    hru       141     1.6728E-2                 0  
     142  hru0142                    hru       142     2.2568E-2                 0  
     143  hru0143                    hru       143     1.4421E-3                 0  
     144  hru0144                    hru       144     1.6584E-3                 0  
     145  hru0145                    hru       145     6.4893E-4                 0  
     146  hru0146                    hru       146     1.2041E-2                 0  
     147  hru0147                    hru       147     1.0383E-2                 0  
     148  hru0148                    hru       148     1.1753E-2                 0  
     149  hru0149                    hru       149     5.4798E-3                 0  
     150  hru0150                    hru       150     7.6429E-3                 0  
     151  hru0151                    hru       151     1.2979E-3                 0  
     152  hru0152                    hru       152     9.0850E-3                 0  
     153  hru0153                    hru       153     2.6678E-3                 0  
     154  hru0154                    hru       154     1.3555E-2                 0  
     155  hru0155                    hru       155     1.0239E-2                 0  
     156  hru0156                    hru       156     4.5425E-3                 0  
     157  hru0157                    hru       157     2.3073E-3                 0  
     158  hru0158                    hru       158     2.8841E-4                 0  
     159  hru0159                    hru       159     7.2103E-4                 0  
     160  hru0160                    hru       160     1.4421E-4                 0  
     161  hru0161                    hru       161     2.5957E-3                 0  
     162  hru0162                    hru       162     7.2103E-4                 0  
     163  hru0163                    hru       163     9.3734E-4                 0  
     164  hru0164                    hru       164     1.1537E-3                 0  
     165  hru0165                    hru       165     1.8026E-3                 0  
     166  hru0166                    hru       166     2.8841E-4                 0  
     167  hru0167                    hru       167     7.4266E-3                 0  
     168  hru0168                    hru       168     1.0815E-3                 0  
     169  hru0169                    hru       169     7.2103E-5                 0  
     170  hru0170                    hru       170     2.3506E-2                 0  
     171  hru0171                    hru       171     3.2446E-3                 0  
     172  hru0172                    hru       172     6.4893E-4                 0  
     173  hru0173                    hru       173     4.6146E-3                 0  
     174  hru0174                    hru       174     2.7399E-3                 0  
     175  hru0175                    hru       175     4.0378E-3                 0  
     176  hru0176                    hru       176     5.2082E-2                 0  
     177  hru0177                    hru       177     1.2231E-3                 0  
     178  hru0178                    hru       178     5.0961E-4                 0  
     179  hru0179                    hru       179     4.7088E-2                 0  
     180  hru0180                    hru       180     7.1345E-4                 0  
     181  hru0181                    hru       181     1.4269E-3                 0  
     182  hru0182                    hru       182     1.1007E-1                 0  
     183  hru0183                    hru       183     1.6817E-3                 0  
     184  hru0184                    hru       184     3.5672E-3                 0  
     185  hru0185                    hru       185     4.4234E-2                 0  
     186  hru0186                    hru       186     3.1596E-3                 0  
     187  hru0187                    hru       187     3.5672E-4                 0  
     188  hru0188                    hru       188     9.5296E-3                 0  
     189  hru0189                    hru       189     5.0961E-5                 0  
     190  hru0190                    hru       190     5.6057E-4                 0  
     191  hru0191                    hru       191     1.0192E-4                 0  
     192  hru0192                    hru       192     3.3940E-2                 0  
     193  hru0193                    hru       193     5.4018E-3                 0  
     194  hru0194                    hru       194     1.2740E-3                 0  
     195  hru0195                    hru       195     3.2564E-2                 0  
     196  hru0196                    hru       196     3.2105E-3                 0  
     197  hru0197                    hru       197     5.0961E-4                 0  
     198  hru0198                    hru       198     1.3810E-2                 0  
     199  hru0199                    hru       199     1.4269E-3                 0  
     200  hru0200                    hru       200     4.0768E-4                 0  
     201  hru0201                    hru       201     7.6951E-3                 0  
     202  hru0202                    hru       202     5.6057E-4                 0  
     203  hru0203                    hru       203     1.5288E-4                 0  
     204  hru0204                    hru       204     1.6817E-3                 0  
     205  hru0205                    hru       205     4.0768E-4                 0  
     206  hru0206                    hru       206     5.0961E-5                 0  
     207  hru0207                    hru       207     1.4269E-3                 0  
     208  hru0208                    hru       208     1.0192E-3                 0  
     209  hru0209                    hru       209     9.1729E-4                 0  
     210  hru0210                    hru       210     7.1345E-3                 0  
     211  hru0211                    hru       211     9.3971E-2                 0  
     212  hru0212                    hru       212     3.1596E-3                 0  
     213  hru0213                    hru       213     2.3136E-2                 0  
     214  hru0214                    hru       214     8.6633E-4                 0  
     215  hru0215                    hru       215     5.4528E-3                 0  
     216  hru0216                    hru       216     7.1854E-2                 0  
     217  hru0217                    hru       217     2.7519E-3                 0  
     218  hru0218                    hru       218     5.0451E-3                 0  
     219  hru0219                    hru       219     1.9416E-2                 0  
     220  hru0220                    hru       220     1.6307E-3                 0  
     221  hru0221                    hru       221     6.1153E-4                 0  
     222  hru0222                    hru       222     3.0067E-3                 0  
     223  hru0223                    hru       223     4.3826E-3                 0  
     224  hru0224                    hru       224     1.2740E-3                 0  
     225  hru0225                    hru       225     1.5288E-4                 0  
     226  hru0226                    hru       226     1.5288E-4                 0  
     227  hru0227                    hru       227     5.0961E-5                 0  
     228  hru0228                    hru       228     5.2489E-3                 0  
     229  hru0229                    hru       229     2.0384E-4                 0  
     230  hru0230                    hru       230     5.0961E-5                 0  
     231  hru0231                    hru       231     1.3352E-2                 0  
     232  hru0232                    hru       232     3.0576E-4                 0  
     233  hru0233                    hru       233     5.0961E-5                 0  
     234  hru0234                    hru       234     2.4461E-3                 0  
     235  hru0235                    hru       235     4.0768E-4                 0  
     236  hru0236                    hru       236     6.1153E-4                 0  
     237  hru0237                    hru       237     1.0192E-4                 0  
     238  hru0238                    hru       238     2.5480E-4                 0  
     239  hru0239                    hru       239     3.6692E-3                 0  
     240  hru0240                    hru       240     2.7009E-3                 0  
     241  hru0241                    hru       241     2.5480E-4                 0  
     242  hru0242                    hru       242     4.1278E-2                 0  
     243  hru0243                    hru       243     1.5849E-2                 0  
     244  hru0244                    hru       244     3.1086E-3                 0  
     245  hru0245                    hru       245     1.1262E-2                 0  
     246  hru0246                    hru       246     2.0894E-3                 0  
     247  hru0247                    hru       247     1.1262E-2                 0  
     248  hru0248                    hru       248     4.8922E-3                 0  
     249  hru0249                    hru       249     1.0702E-3                 0  
     250  hru0250                    hru       250     2.5480E-3                 0  
     251  hru0251                    hru       251     3.0576E-4                 0  
     252  hru0252                    hru       252     1.4779E-2                 0  
     253  hru0253                    hru       253     2.9455E-2                 0  
     254  hru0254                    hru       254     2.3340E-2                 0  
     255  hru0255                    hru       255     1.5288E-3                 0  
     256  hru0256                    hru       256     1.3250E-3                 0  
     257  hru0257                    hru       257     1.5288E-4                 0  
     258  hru0258                    hru       258     7.1345E-4                 0  
     259  hru0259                    hru       259     3.3634E-3                 0  
     260  hru0260                    hru       260     4.6884E-3                 0  
     261  hru0261                    hru       261     2.4461E-3                 0  
     262  hru0262                    hru       262     3.6182E-3                 0  
     263  hru0263                    hru       263     5.4528E-3                 0  
     264  hru0264                    hru       264     1.6817E-3                 0  
     265  hru0265                    hru       265     7.1345E-4                 0  
     266  hru0266                    hru       266     2.5480E-3                 0  
     267  hru0267                    hru       267     1.3454E-2                 0  
     268  hru0268                    hru       268     1.3810E-2                 0  
     269  hru0269                    hru       269     1.3810E-2                 0  
     270  hru0270                    hru       270     2.0384E-4                 0  
     271  hru0271                    hru       271     5.0961E-5                 0  
     272  hru0272                    hru       272     1.2740E-3                 0  
     273  hru0273                    hru       273     8.6633E-4                 0  
     274  hru0274                    hru       274     4.2807E-3                 0  
     275  hru0275                    hru       275     8.5614E-3                 0  
     276  hru0276                    hru       276     1.3759E-3                 0  
     277  hru0277                    hru       277     6.5739E-3                 0  
     278  hru0278                    hru       278     1.7581E-2                 0  
     279  hru0279                    hru       279     5.0553E-2                 0  
     280  hru0280                    hru       280     3.8220E-3                 0  
     281  hru0281                    hru       281     2.1403E-3                 0  
     282  hru0282                    hru       282     1.0192E-4                 0  
     283  hru0283                    hru       283     6.1153E-4                 0  
     284  hru0284                    hru       284     1.0192E-4                 0  
     285  hru0285                    hru       285     2.7009E-3                 0  
     286  hru0286                    hru       286     2.4461E-3                 0  
     287  hru0287                    hru       287     1.9365E-3                 0  
     288  hru0288                    hru       288     3.3124E-3                 0  
     289  hru0289                    hru       289     1.6817E-3                 0  
     290  hru0290                    hru       290     1.6307E-3                 0  
     291  hru0291                    hru       291     1.5288E-4                 0  
     292  hru0292                    hru       292     7.1345E-4                 0  
     293  hru0293                    hru       293     2.5480E-4                 0  
     294  hru0294                    hru       294     9.6241E-2                 0  
     295  hru0295                    hru       295     6.4662E-2                 0  
     296  hru0296                    hru       296     2.1053E-2                 0  
     297  hru0297                    hru       297     8.8722E-2                 0  
     298  hru0298                    hru       298     2.2556E-2                 0  
     299  hru0299                    hru       299     1.2030E-1                 0  
     300  hru0300                    hru       300     9.0226E-3                 0  
     301  hru0301                    hru       301     3.0075E-3                 0  
     302  hru0302                    hru       302     9.0226E-3                 0  
     303  hru0303                    hru       303     4.0602E-2                 0  
     304  hru0304                    hru       304     1.3684E-1                 0  
     305  hru0305                    hru       305     1.2932E-1                 0  
     306  hru0306                    hru       306     1.5038E-2                 0  
     307  hru0307                    hru       307     4.6617E-2                 0  
     308  hru0308                    hru       308     1.0376E-1                 0  
     309  hru0309                    hru       309     6.0150E-3                 0  
     310  hru0310                    hru       310     6.0150E-3                 0  
     311  hru0311                    hru       311     1.5038E-3                 0  
     312  hru0312                    hru       312     2.1053E-2                 0  
     313  hru0313                    hru       313     2.7068E-2                 0  
     314  hru0314                    hru       314     3.1579E-2                 0  
     315  hru0315                    hru       315     1.5054E-1                 0  
     316  hru0316                    hru       316     7.1685E-2                 0  
     317  hru0317                    hru       317     1.7921E-2                 0  
     318  hru0318                    hru       318     7.1685E-3                 0  
     319  hru0319                    hru       319     1.0753E-2                 0  
     320  hru0320                    hru       320     6.8100E-2                 0  
     321  hru0321                    hru       321     3.5842E-2                 0  
     322  hru0322                    hru       322     7.1685E-2                 0  
     323  hru0323                    hru       323     7.1685E-3                 0  
     324  hru0324                    hru       324     1.0753E-2                 0  
     325  hru0325                    hru       325     1.0036E-1                 0  
     326  hru0326                    hru       326     1.1470E-1                 0  
     327  hru0327                    hru       327     3.9427E-2                 0  
     328  hru0328                    hru       328     1.9713E-1                 0  
     329  hru0329                    hru       329     8.2437E-2                 0  
     330  hru0330                    hru       330     1.4337E-2                 0  
     331  hru0331                    hru       331     3.6107E-3                 0  
     332  hru0332                    hru       332     2.1029E-3                 0  
     333  hru0333                    hru       333     6.8643E-3                 0  
     334  hru0334                    hru       334     3.2179E-2                 0  
     335  hru0335                    hru       335     4.1503E-2                 0  
     336  hru0336                    hru       336     6.0469E-2                 0  
     337  hru0337                    hru       337     1.5871E-3                 0  
     338  hru0338                    hru       338     4.7613E-4                 0  
     339  hru0339                    hru       339     4.7613E-4                 0  
     340  hru0340                    hru       340     1.1903E-3                 0  
     341  hru0341                    hru       341     8.3323E-4                 0  
     342  hru0342                    hru       342     5.5549E-4                 0  
     343  hru0343                    hru       343     8.7291E-4                 0  
     344  hru0344                    hru       344     7.9356E-5                 0  
     345  hru0345                    hru       345     1.5078E-3                 0  
     346  hru0346                    hru       346     9.9195E-4                 0  