rout_unit.con: written by SWAT+ editor v3.0.0 on 2024-06-21 16:07 for SWAT+ rev.61.0
      id  name                gis_id          area           lat           lon          elev       rtu               wst       cst      ovfl      rule   out_tot       obj_typ    obj_id       hyd_typ          frac  
       1  rtu0010                 10    4123.30368      41.80013       2.61502     298.33473         1      s41865n2664e         0         0         0         1           sdc         1           tot       1.00000           aqu        19           rhg       1.00000  
       2  rtu0020                 20    1507.95177      41.78510       2.35625    1035.25143         2      s41748n2303e         0         0         0         1           sdc         2           tot       1.00000           aqu       116           rhg       1.00000  
       3  rtu0030                 30     113.97963      41.77970       2.67966      87.38554         3      s41739n2694e         0         0         0         1           sdc         3           tot       1.00000           aqu        20           rhg       1.00000  
       4  rtu0040                 40     123.59237      41.79337       2.68217     111.59343         4      s41739n2694e         0         0         0         1           sdc         4           tot       1.00000           aqu        21           rhg       1.00000  
       5  rtu0050                 50      89.19874      41.80133       2.69984      95.43877         5      s41739n2694e         0         0         0         1           sdc         5           tot       1.00000           aqu        23           rhg       1.00000  
       6  rtu0060                 60      14.98089      41.80351       2.70953      78.71250         6      s41739n2694e         0         0         0         1           sdc         6           tot       1.00000           aqu        24           rhg       1.00000  
       7  rtu0070                 70      11.79745      41.81433       2.71360      85.48148         7      s41865n2664e         0         0         0         1           sdc         7           tot       1.00000           aqu        27           rhg       1.00000  
       8  rtu0080                 80     133.95416      41.85665       2.66140     171.50746         8      s41865n2664e         0         0         0         1           sdc         8           tot       1.00000           aqu        29           rhg       1.00000  
       9  rtu0090                 90       1.24841      41.85901       2.65777     137.45000         9      s41865n2664e         0         0         0         1           sdc         9           tot       1.00000           aqu        30           rhg       1.00000  
      10  rtu0100                100     547.67650      41.86373       2.64121     249.60052        10      s41865n2664e         0         0         0         1           sdc        10           tot       1.00000           aqu        32           rhg       1.00000  
      11  rtu0110                110     148.24843      41.78813       2.69106     102.71074        11      s41739n2694e         0         0         0         1           sdc        11           tot       1.00000           aqu        37           rhg       1.00000  
      12  rtu0120                120       1.49809      41.79896       2.73292      65.54167        12      s41739n2694e         0         0         0         1           sdc        12           tot       1.00000           aqu        41           rhg       1.00000  
      13  rtu0130                130      20.09937      41.79830       2.74092      66.51863        13      s41739n2694e         0         0         0         1           sdc        13           tot       1.00000           aqu        45           rhg       1.00000  
      14  rtu0140                140     971.63579      41.79766       2.52105     460.58210        14      s41840n2419e         0         0         0         1           sdc        14           tot       1.00000           aqu        63           rhg       1.00000  
      15  rtu0150                150     246.81022      41.80773       2.73851      77.75569        15      s41885n2741e         0         0         0         1           sdc        15           tot       1.00000           aqu        50           rhg       1.00000  
      16  rtu0160                160     766.95933      41.77971       2.39623     942.42378        16      s41840n2419e         0         0         0         1           sdc        16           tot       1.00000           aqu       117           rhg       1.00000  
      17  rtu0170                170      66.85224      41.79146       2.75088      73.27638        17      s41739n2694e         0         0         0         1           sdc        17           tot       1.00000           aqu        42           rhg       1.00000  
      18  rtu0180                180     261.47901      41.78810       2.74407      75.46407        18      s41739n2694e         0         0         0         1           sdc        18           tot       1.00000           aqu        39           rhg       1.00000  
      19  rtu0190                190    2195.32511      41.82149       2.64072     286.02664        19      s41865n2664e         0         0         0         1           sdc        19           tot       1.00000           aqu        22           rhg       1.00000  
      20  rtu0200                200     723.51474      41.83732       2.69664     105.98922        20      s41865n2664e         0         0         0         1           sdc        20           tot       1.00000           aqu        34           rhg       1.00000  
      21  rtu0210                210    2191.33020      41.84346       2.52005     567.23805        21      s41840n2419e         0         0         0         1           sdc        21           tot       1.00000           aqu        62           rhg       1.00000  
      22  rtu0220                220    2436.76717      41.82720       2.79281     109.54365        22      s41898n2819e         0         0         0         1           sdc        22           tot       1.00000           aqu        52           rhg       1.00000  
      23  rtu0230                230    3242.61441      41.82684       2.44650     787.44242        23      s41840n2419e         0         0         0         1           sdc        23           tot       1.00000           aqu        68           rhg       1.00000  
      24  rtu0240                240    5001.30889      41.86806       2.56991     542.91155        24      s41865n2664e         0         0         0         1           sdc        24           tot       1.00000           aqu        33           rhg       1.00000  
      25  rtu0250                250    1910.31361      41.89376       2.61919     424.52663        25      s41865n2664e         0         0         0         1           sdc        25           tot       1.00000           aqu        31           rhg       1.00000  
      26  rtu0260                260     396.30705      41.66631       2.77477       9.99732        26      s41647n2757e         0         0         0         1           sdc        26           tot       1.00000           aqu         1           rhg       1.00000  
      27  rtu0270                270     865.70838      41.68437       2.76319      31.58202        27      s41647n2757e         0         0         0         1           sdc        27           tot       1.00000           aqu         2           rhg       1.00000  
      28  rtu0280                280       2.24713      41.69227       2.73974      14.80556        28      s41647n2757e         0         0         0         1           sdc        28           tot       1.00000           aqu         7           rhg       1.00000  
      29  rtu0290                290      50.37325      41.69727       2.73296      19.43494        29      s41647n2757e         0         0         0         1           sdc        29           tot       1.00000           aqu         8           rhg       1.00000  
      30  rtu0300                300     121.40766      41.70649       2.71490      26.58355        30      s41739n2694e         0         0         0         1           sdc        30           tot       1.00000           aqu        10           rhg       1.00000  
      31  rtu0310                310    1150.15810      41.74134       2.71110      81.49365        31      s41739n2694e         0         0         0         1           sdc        31           tot       1.00000           aqu        13           rhg       1.00000  
      32  rtu0320                320      11.79745      41.74065       2.69536      61.41799        32      s41739n2694e         0         0         0         1           sdc        32           tot       1.00000           aqu        14           rhg       1.00000  
      33  rtu0330                330      23.84459      41.74427       2.67410      54.93455        33      s41739n2694e         0         0         0         1           sdc        33           tot       1.00000           aqu        17           rhg       1.00000  
      34  rtu0340                340     690.55677      41.76296       2.67224      79.80539        34      s41739n2694e         0         0         0         1           sdc        34           tot       1.00000           aqu        18           rhg       1.00000  
      35  rtu0350                350     556.60262      41.75610       2.65062      88.50107        35      s41739n2694e         0         0         0         1           sdc        35           tot       1.00000           aqu        54           rhg       1.00000  
      36  rtu0360                360    1651.08173      41.70364       2.61222     232.96238        36      s41739n2694e         0         0         0         1           sdc        36           tot       1.00000           aqu        69           rhg       1.00000  
      37  rtu0370                370       0.18726      41.72475       2.57520      75.00000        37      s41680n2489e         0         0         0         1           sdc        37           tot       1.00000           aqu        74           rhg       1.00000  
      38  rtu0380                380      12.54650      41.72402       2.57102      78.59204        38      s41680n2489e         0         0         0         1           sdc        38           tot       1.00000           aqu        85           rhg       1.00000  
      39  rtu0390                390    1267.38359      41.68723       2.53652     309.31112        39      s41680n2489e         0         0         0         1           sdc        39           tot       1.00000           aqu        94           rhg       1.00000  
      40  rtu0400                400      16.91593      41.69052       2.50616     148.06273        40      s41680n2489e         0         0         0         1           sdc        40           tot       1.00000           aqu       100           rhg       1.00000  
      41  rtu0410                410    1046.41541      41.67297       2.51273     266.96427        41      s41680n2489e         0         0         0         1           sdc        41           tot       1.00000           aqu       101           rhg       1.00000  
      42  rtu0420                420       3.49554      41.67993       2.48850     146.37500        42      s41680n2489e         0         0         0         1           sdc        42           tot       1.00000           aqu       103           rhg       1.00000  
      43  rtu0430                430     680.81919      41.69726       2.46148     225.40359        43      s41680n2489e         0         0         0         1           sdc        43           tot       1.00000           aqu       107           rhg       1.00000  
      44  rtu0440                440    1987.90215      41.71074       2.41828     369.17776        44      s41680n2489e         0         0         0         1           sdc        44           tot       1.00000           aqu       109           rhg       1.00000  
      45  rtu0450                450      21.90956      41.73469       2.40829     455.63533        45      s41680n2489e         0         0         0         1           sdc        45           tot       1.00000           aqu       111           rhg       1.00000  
      46  rtu0460                460     692.80391      41.75144       2.41158     753.43995        46      s41840n2419e         0         0         0         1           sdc        46           tot       1.00000           aqu       112           rhg       1.00000  
      47  rtu0470                470    1216.19887      41.75595       2.37186     821.92070        47      s41748n2303e         0         0         0         1           sdc        47           tot       1.00000           aqu       114           rhg       1.00000  
      48  rtu0480                480       0.93631      41.73199       2.62583      61.66667        48      s41739n2694e         0         0         0         1           sdc        48           tot       1.00000           aqu        56           rhg       1.00000  
      49  rtu0490                490     162.85480      41.74129       2.62368      83.36757        49      s41739n2694e         0         0         0         1           sdc        49           tot       1.00000           aqu        57           rhg       1.00000  
      50  rtu0500                500     128.77326      41.76094       2.58950     164.16045        50      s41739n2694e         0         0         0         1           sdc        50           tot       1.00000           aqu        59           rhg       1.00000  
      51  rtu0510                510     115.60256      41.76876       2.58635     210.15389        51      s41739n2694e         0         0         0         1           sdc        51           tot       1.00000           aqu        60           rhg       1.00000  
      52  rtu0520                520     111.17071      41.67518       2.48340     175.65693        52      s41680n2489e         0         0         0         1           sdc        52           tot       1.00000           aqu       104           rhg       1.00000  
      53  rtu0530                530      17.41529      41.68984       2.73689      18.72760        53      s41647n2757e         0         0         0         1           sdc        53           tot       1.00000           aqu         5           rhg       1.00000  
      54  rtu0540                540    1842.96201      41.64612       2.50873     311.07011        54      s41680n2489e         0         0         0         1           sdc        54           tot       1.00000           aqu       106           rhg       1.00000  
      55  rtu0550                550    1688.84606      41.66474       2.45504     247.28903        55      s41680n2489e         0         0         0         1           sdc        55           tot       1.00000           aqu       105           rhg       1.00000  
      56  rtu0560                560    1626.98746      41.69031       2.66357     159.46158        56      s41739n2694e         0         0         0         1           sdc        56           tot       1.00000           aqu        11           rhg       1.00000  
      57  rtu0570                570    1692.65371      41.68273       2.58502     324.01899        57      s41680n2489e         0         0         0         1           sdc        57           tot       1.00000           aqu        73           rhg       1.00000  
      58  rtu0580                580     605.66504      41.72535       2.49481     315.73761        58      s41680n2489e         0         0         0         1           sdc        58           tot       1.00000           aqu        88           rhg       1.00000  
      59  rtu0590                590       4.74395      41.72553       2.57385      78.25000        59      s41680n2489e         0         0         0         1           sdc        59           tot       1.00000           aqu        75           rhg       1.00000  
      60  rtu0600                600      49.99873      41.73058       2.56852      95.24969        60      s41680n2489e         0         0         0         1           sdc        60           tot       1.00000           aqu        77           rhg       1.00000  
      61  rtu0610                610     508.91344      41.74146       2.54233     191.11260        61      s41680n2489e         0         0         0         1           sdc        61           tot       1.00000           aqu        76           rhg       1.00000  
      62  rtu0620                620      34.14395      41.73542       2.56474     111.46069        62      s41680n2489e         0         0         0         1           sdc        62           tot       1.00000           aqu        79           rhg       1.00000  
      63  rtu0630                630     768.83194      41.76217       2.55128     262.94260        63      s41680n2489e         0         0         0         1           sdc        63           tot       1.00000           aqu        78           rhg       1.00000  
      64  rtu0640                640    1396.21928      41.77892       2.49709     752.10537        64      s41840n2419e         0         0         0         1           sdc        64           tot       1.00000           aqu        84           rhg       1.00000  
      65  rtu0650                650    1228.05875      41.80683       2.48118     722.06333        65      s41840n2419e         0         0         0         1           sdc        65           tot       1.00000           aqu        67           rhg       1.00000  
      66  rtu0660                660       0.31210      41.81466       2.52153     263.60000        66      s41840n2419e         0         0         0         1           sdc        66           tot       1.00000           aqu        65           rhg       1.00000  
      67  rtu0670                670    1094.79122      41.84350       2.49158     582.32767        67      s41840n2419e         0         0         0         1           sdc        67           tot       1.00000           aqu        66           rhg       1.00000  
      68  rtu0680                680    1003.59503      41.76422       2.69767      89.86279        68      s41739n2694e         0         0         0         1           sdc        68           tot       1.00000           aqu        15           rhg       1.00000  
      69  rtu0690                690     603.35549      41.73258       2.66437      91.75512        69      s41739n2694e         0         0         0         1           sdc        69           tot       1.00000           aqu        16           rhg       1.00000  
      70  rtu0700                700    1428.80272      41.75800       2.79616     150.49035        70      s41739n2694e         0         0         0         1           sdc        70           tot       1.00000           aqu        43           rhg       1.00000  
      71  rtu0710                710    1011.14789      41.76822       2.81358     183.46984        71      s41739n2694e         0         0         0         1           sdc        71           tot       1.00000           aqu        44           rhg       1.00000  
      72  rtu0720                720     287.94526      41.80578       2.76320      82.21916        72      s41885n2741e         0         0         0         1           sdc        72           tot       1.00000           aqu        51           rhg       1.00000  
      73  rtu0730                730    1346.78233      41.76136       2.75243     121.09117        73      s41739n2694e         0         0         0         1           sdc        73           tot       1.00000           aqu        40           rhg       1.00000  
      74  rtu0740                740      79.39874      41.76963       2.46658    1200.97484        74      s41840n2419e         0         0         0         1           sdc        74           tot       1.00000           aqu        91           rhg       1.00000  
      75  rtu0750                750      48.37580      41.77337       2.46665    1144.45290        75      s41840n2419e         0         0         0         1           sdc        75           tot       1.00000           aqu        92           rhg       1.00000  
      76  rtu0760                760    1573.18108      41.68060       2.69439     110.28628        76      s41739n2694e         0         0         0         1           sdc        76           tot       1.00000           aqu         6           rhg       1.00000  
      77  rtu0770                770    1224.87531      41.70828       2.76216      84.75238        77      s41647n2757e         0         0         0         1           sdc        77           tot       1.00000           aqu         3           rhg       1.00000  
      78  rtu0780                780      41.50956      41.68853       2.74550      14.10526        78      s41647n2757e         0         0         0         1           sdc        78           tot       1.00000           aqu         4           rhg       1.00000  
      79  rtu0790                790    1773.23843      41.72882       2.74191     103.88053        79      s41739n2694e         0         0         0         1           sdc        79           tot       1.00000           aqu         9           rhg       1.00000  
      80  rtu0800                800    1211.39250      41.71388       2.67228     109.79976        80      s41739n2694e         0         0         0         1           sdc        80           tot       1.00000           aqu        12           rhg       1.00000  
      81  rtu0810                810      31.45988      41.80813       2.71534      85.60913        81      s41739n2694e         0         0         0         1           sdc        81           tot       1.00000           aqu        26           rhg       1.00000  
      82  rtu0820                820    1450.40018      41.83176       2.66345     224.56916        82      s41865n2664e         0         0         0         1           sdc        82           tot       1.00000           aqu        25           rhg       1.00000  
      83  rtu0830                830    2389.45252      41.84519       2.73559     105.87806        83      s41885n2741e         0         0         0         1           sdc        83           tot       1.00000           aqu        53           rhg       1.00000  
      84  rtu0840                840     269.09430      41.83539       2.71213      97.53143        84      s41865n2664e         0         0         0         1           sdc        84           tot       1.00000           aqu        35           rhg       1.00000  
      85  rtu0850                850     346.80769      41.72920       2.50887     214.11411        85      s41680n2489e         0         0         0         1           sdc        85           tot       1.00000           aqu        89           rhg       1.00000  
      86  rtu0860                860     155.80129      41.68889       2.51938     203.80008        86      s41680n2489e         0         0         0         1           sdc        86           tot       1.00000           aqu        96           rhg       1.00000  
      87  rtu0870                870     216.91085      41.75655       2.40323     605.15683        87      s41840n2419e         0         0         0         1           sdc        87           tot       1.00000           aqu       113           rhg       1.00000  
      88  rtu0880                880     596.48924      41.78968       2.40443    1091.13206        88      s41840n2419e         0         0         0         1           sdc        88           tot       1.00000           aqu       118           rhg       1.00000  
      89  rtu0890                890     960.58738      41.74705       2.44270     819.42147        89      s41680n2489e         0         0         0         1           sdc        89           tot       1.00000           aqu        99           rhg       1.00000  
      90  rtu0900                900     488.56439      41.70187       2.48522     196.65338        90      s41680n2489e         0         0         0         1           sdc        90           tot       1.00000           aqu        97           rhg       1.00000  
      91  rtu0910                910     789.61793      41.78127       2.85523     265.02016        91      s41875n2927e         0         0         0         1           sdc        91           tot       1.00000           aqu        49           rhg       1.00000  
      92  rtu0920                920     867.95552      41.79485       2.77969      95.19547        92      s41885n2741e         0         0         0         1           sdc        92           tot       1.00000           aqu        46           rhg       1.00000  
      93  rtu0930                930     481.13636      41.79735       2.82910     155.23871        93      s41898n2819e         0         0         0         1           sdc        93           tot       1.00000           aqu        48           rhg       1.00000  
      94  rtu0940                940     920.45107      41.86767       2.67971     145.74468        94      s41865n2664e         0         0         0         1           sdc        94           tot       1.00000           aqu        36           rhg       1.00000  
      95  rtu0950                950     380.32743      41.77796       2.44893    1372.24175        95      s41840n2419e         0         0         0         1           sdc        95           tot       1.00000           aqu        93           rhg       1.00000  
      96  rtu0960                960     556.47777      41.79360       2.42736    1166.76713        96      s41840n2419e         0         0         0         1           sdc        96           tot       1.00000           aqu       119           rhg       1.00000  
      97  rtu0970                970     786.93385      41.79076       2.71930      93.31483        97      s41739n2694e         0         0         0         1           sdc        97           tot       1.00000           aqu        38           rhg       1.00000  
      98  rtu0980                980     778.81920      41.78513       2.81275     147.43905        98      s41898n2819e         0         0         0         1           sdc        98           tot       1.00000           aqu        47           rhg       1.00000  
      99  rtu0990                990     408.79113      41.83945       2.67790     154.16720        99      s41865n2664e         0         0         0         1           sdc        99           tot       1.00000           aqu        28           rhg       1.00000  
     100  rtu1000               1000    1559.32376      41.74240       2.62957     137.15324       100      s41739n2694e         0         0         0         1           sdc       100           tot       1.00000           aqu        55           rhg       1.00000  
     101  rtu1010               1010     409.66502      41.75437       2.60657     119.16456       101      s41739n2694e         0         0         0         1           sdc       101           tot       1.00000           aqu        58           rhg       1.00000  
     102  rtu1020               1020    1406.51864      41.78545       2.56541     289.13207       102      s41865n2664e         0         0         0         1           sdc       102           tot       1.00000           aqu        61           rhg       1.00000  
     103  rtu1030               1030     200.55671      41.81171       2.51840     365.12885       103      s41840n2419e         0         0         0         1           sdc       103           tot       1.00000           aqu        64           rhg       1.00000  
     104  rtu1040               1040     574.08032      41.74580       2.58937     143.57867       104      s41739n2694e         0         0         0         1           sdc       104           tot       1.00000           aqu        70           rhg       1.00000  
     105  rtu1050               1050     669.33384      41.72870       2.58584     122.68181       105      s41680n2489e         0         0         0         1           sdc       105           tot       1.00000           aqu        71           rhg       1.00000  
     106  rtu1060               1060      58.86243      41.72699       2.58416      74.62248       106      s41680n2489e         0         0         0         1           sdc       106           tot       1.00000           aqu        72           rhg       1.00000  
     107  rtu1070               1070     132.26881      41.76299       2.53405     309.41907       107      s41680n2489e         0         0         0         1           sdc       107           tot       1.00000           aqu        83           rhg       1.00000  
     108  rtu1080               1080      46.12867      41.75423       2.54916     200.59540       108      s41680n2489e         0         0         0         1           sdc       108           tot       1.00000           aqu        82           rhg       1.00000  
     109  rtu1090               1090     265.34908      41.74575       2.54975     181.86450       109      s41680n2489e         0         0         0         1           sdc       109           tot       1.00000           aqu        81           rhg       1.00000  
     110  rtu1100               1100      33.89427      41.73685       2.56234     116.79926       110      s41680n2489e         0         0         0         1           sdc       110           tot       1.00000           aqu        80           rhg       1.00000  