soils.sol: written by SWAT+ editor v3.0.0 on 2024-06-21 16:08 for SWAT+ rev.61.0
name                            nly           hyd_grp        dp_tot    anion_excl      perc_crk  texture                              dp            bd           awc        soil_k        carbon          clay          silt          sand          rock           alb        usle_k            ec         caco3            ph  
DSOLMap_942                       6                 C    2000.00000       0.50000       0.50000  WIT_texture                
                                                                                                                                50.00000       1.21300       0.17070      18.31000       4.63300      30.78000      31.88000      37.34000       9.56000       0.21130       0.13060       0.00000       0.00000       0.00000  
                                                                                                                               100.00000       1.23800       0.16500      17.44000       3.99600      31.33000      31.64000      37.03000      10.09000       0.21120       0.13090       0.00000       0.00000       0.00000  
                                                                                                                               300.00000       1.29100       0.15930      14.42000       2.92200      33.66000      30.61000      35.75000      10.60000       0.21070       0.13940       0.00000       0.00000       0.00000  
                                                                                                                               600.00000       1.32200       0.15280      12.37000       2.46000      35.34000      29.88000      34.78000      11.68000       0.21030       0.14560       0.00000       0.00000       0.00000  
                                                                                                                              1000.00000       1.34000       0.15190      12.14000       2.39600      35.10000      29.66000      35.28000      12.73000       0.21060       0.14750       0.00000       0.00000       0.00000  
                                                                                                                              2000.00000       1.34900       0.14640      12.19500       2.44100      34.34000      29.61000      36.06000      13.80000       0.21090       0.14800       0.00000       0.00000       0.00000  
DSOLMap_1410                      6                 C    2000.00000       0.50000       0.50000  WIT_texture                
                                                                                                                                50.00000       1.28700       0.16820      21.81000       3.51400      24.08000      37.30000      38.60000       9.76000       0.21450       0.14090       0.00000       0.00000       0.00000  
                                                                                                                               100.00000       1.31800       0.16310      20.42000       3.06600      24.69000      37.06000      38.20000      10.16400       0.21420       0.14170       0.00000       0.00000       0.00000  
                                                                                                                               300.00000       1.38500       0.15390      15.05000       2.02700      28.34000      35.25000      36.47000      10.17000       0.21330       0.15050       0.00000       0.00000       0.00000  
                                                                                                                               600.00000       1.42900       0.14320      12.59000       1.56200      30.12000      34.06000      35.80000      11.03000       0.21290       0.15640       0.00000       0.00000       0.00000  
                                                                                                                              1000.00000       1.45300       0.14040      12.63000       1.46500      29.56000      33.60000      36.84000      11.97000       0.21310       0.15800       0.00000       0.00000       0.00000  
                                                                                                                              2000.00000       1.46300       0.13500      13.01600       1.38100      28.70000      33.00000      38.30000      12.97000       0.21350       0.15820       0.00000       0.00000       0.00000  
DSOLMap_1413                      6                 C    2000.00000       0.50000       0.50000  WIT_texture                
                                                                                                                                50.00000       0.92630       0.21620      36.60000      10.96000      17.83000      39.16000      43.00000      10.89000       0.21370       0.13900       0.00000       0.00000       0.00000  
                                                                                                                               100.00000       1.10700       0.21640      34.88000       9.21000      18.16000      38.80000      43.03000      11.46000       0.21400       0.13900       0.00000       0.00000       0.00000  
                                                                                                                               300.00000       1.22400       0.20970      32.72000       5.40600      18.84000      37.53000      43.62000      11.86000       0.21510       0.14320       0.00000       0.00000       0.00000  
                                                                                                                               600.00000       1.32500       0.19620      29.90000       4.59800      19.20000      36.28000      44.53000      14.31000       0.21550       0.14670       0.00000       0.00000       0.00000  
                                                                                                                              1000.00000       1.35100       0.19130      30.25000       4.45700      18.84000      35.66000      45.50000      15.52000       0.21570       0.14800       0.00000       0.00000       0.00000  
                                                                                                                              2000.00000       1.37800       0.18750      30.30000       4.30000      18.69000      34.94000      46.38000      16.22000       0.21600       0.14870       0.00000       0.00000       0.00000  
DSOLMap_1877                      6                 B    2000.00000       0.50000       0.50000  WIT_texture                
                                                                                                                                50.00000       1.36100       0.09910      68.44000       1.76900      16.66000      17.08000      66.25000       9.32000       0.21880       0.13700       0.00000       0.00000       0.00000  
                                                                                                                               100.00000       1.38000       0.09730      64.60000       1.52200      17.70000      16.81000      65.44000       9.92000       0.21810       0.13760       0.00000       0.00000       0.00000  
                                                                                                                               300.00000       1.41300       0.09204      48.88000       0.95200      22.12000      16.02000      61.84000      10.70000       0.21600       0.14110       0.00000       0.00000       0.00000  
                                                                                                                               600.00000       1.43750       0.08325      30.61000       0.58940      25.11000      15.66400      59.22000      11.99000       0.21460       0.14210       0.00000       0.00000       0.00000  
                                                                                                                              1000.00000       1.44700       0.08276      29.55000       0.49220      25.27000      15.55000      59.20000      13.35000       0.21450       0.14250       0.00000       0.00000       0.00000  
                                                                                                                              2000.00000       1.45400       0.07910      29.69000       0.44650      24.89000      15.57000      59.53000      14.53000       0.21470       0.14320       0.00000       0.00000       0.00000  
DSOLMap_1374                      6                 C    2000.00000       0.50000       0.50000  WIT_texture                
                                                                                                                                50.00000       1.25800       0.17760      20.22000       5.99200      25.78000      36.70000      37.38000       9.34000       0.21300       0.13890       0.00000       0.00000       0.00000  
                                                                                                                               100.00000       1.30600       0.17290      18.06000       4.87000      27.20000      36.25000      36.75000       9.83600       0.21260       0.13930       0.00000       0.00000       0.00000  
                                                                                                                               300.00000       1.37300       0.16310      14.51000       3.79900      29.30000      35.10000      35.62000      10.05000       0.21230       0.14650       0.00000       0.00000       0.00000  
                                                                                                                               600.00000       1.41400       0.15310      12.68000       3.38000      30.28000      34.38000      35.38000      11.16000       0.21220       0.15210       0.00000       0.00000       0.00000  
                                                                                                                              1000.00000       1.43700       0.15060      12.90000       3.47500      29.52000      34.06000      36.40000      12.11000       0.21250       0.15380       0.00000       0.00000       0.00000  
                                                                                                                              2000.00000       1.44900       0.14560      13.05500       3.29700      28.78000      33.60000      37.62000      13.08000       0.21280       0.15470       0.00000       0.00000       0.00000  
DSOLMap_1884                      6                 B    2000.00000       0.50000       0.50000  WIT_texture                
                                                                                                                                50.00000       1.18400       0.13220      70.70000       5.61700      12.11000      25.05000      62.84000      15.54000       0.21810       0.14530       0.00000       0.00000       0.00000  
                                                                                                                               100.00000       1.27000       0.13400      68.00000       4.70000      12.50000      24.80000      62.70000      16.22000       0.21790       0.14530       0.00000       0.00000       0.00000  
                                                                                                                               300.00000       1.34900       0.12790      65.10000       2.72300      13.16400      24.12000      62.70000      16.81000       0.21890       0.14770       0.00000       0.00000       0.00000  
                                                                                                                               600.00000       1.41600       0.12300      59.40000       2.21900      13.72000      23.48000      62.78000      18.86000       0.21910       0.15000       0.00000       0.00000       0.00000  
                                                                                                                              1000.00000       1.45200       0.11830      61.40000       2.10200      13.36000      23.00000      63.62000      20.44000       0.21950       0.15030       0.00000       0.00000       0.00000  
                                                                                                                              2000.00000       1.46500       0.11660      62.88000       1.96500      13.20000      22.52000      64.25000      21.14000       0.21980       0.15000       0.00000       0.00000       0.00000  
DSOLMap_1881                      6                 B    2000.00000       0.50000       0.50000  WIT_texture                
                                                                                                                                50.00000       1.21000       0.15810      48.03000       5.24600      14.84000      31.45000      53.75000      13.36000       0.21770       0.14880       0.00000       0.00000       0.00000  
                                                                                                                               100.00000       1.28700       0.15700      45.50000       4.36300      15.41000      31.27000      53.38000      13.87000       0.21750       0.14920       0.00000       0.00000       0.00000  
                                                                                                                               300.00000       1.36000       0.14890      37.80000       2.70700      17.64000      30.90000      51.40000      14.32000       0.21750       0.15360       0.00000       0.00000       0.00000  
                                                                                                                               600.00000       1.41500       0.13930      32.80000       2.20000      18.62000      29.98000      51.40000      15.99000       0.21740       0.15670       0.00000       0.00000       0.00000  
                                                                                                                              1000.00000       1.44700       0.13590      33.50000       2.08800      18.16000      29.34000      52.50000      17.30000       0.21780       0.15810       0.00000       0.00000       0.00000  
                                                                                                                              2000.00000       1.46000       0.13260      34.66000       1.94200      17.81000      28.61000      53.56000      18.10000       0.21800       0.15880       0.00000       0.00000       0.00000  
DSOLMap_1449                      6                 C    2000.00000       0.50000       0.50000  WIT_texture                
                                                                                                                                50.00000       0.99500       0.21150      49.72000      11.05000      14.63000      33.53000      51.78000      11.29000       0.21400       0.13820       0.00000       0.00000       0.00000  
                                                                                                                               100.00000       1.16000       0.21310      49.38000       8.91000      14.48400      32.75000      52.88000      11.78000       0.21370       0.13810       0.00000       0.00000       0.00000  
                                                                                                                               300.00000       1.27700       0.19930      44.38000       5.42600      15.86000      32.38000      51.72000      11.94500       0.21520       0.14060       0.00000       0.00000       0.00000  
                                                                                                                               600.00000       1.37200       0.18590      39.53000       4.70000      16.40000      31.25000      52.34000      13.33600       0.21580       0.14320       0.00000       0.00000       0.00000  
                                                                                                                              1000.00000       1.42000       0.18130      38.75000       4.59400      16.22000      30.83000      52.94000      14.37000       0.21620       0.14440       0.00000       0.00000       0.00000  
                                                                                                                              2000.00000       1.44000       0.17830      38.80000       4.32400      16.16000      30.40000      53.44000      15.02000       0.21660       0.14560       0.00000       0.00000       0.00000  
DSOLMap_1841                      6                 C    2000.00000       0.50000       0.50000  WIT_texture                
                                                                                                                                50.00000       1.32200       0.14230      40.62000       4.47300      18.14000      28.62000      53.28000      16.28000       0.21700       0.14820       0.00000       0.00000       0.00000  
                                                                                                                               100.00000       1.37000       0.13770      35.50000       3.43400      19.73000      28.48000      51.75000      16.72000       0.21640       0.14860       0.00000       0.00000       0.00000  
                                                                                                                               300.00000       1.42600       0.13000      28.92000       2.45700      22.73000      26.60000      50.62000      17.88000       0.21510       0.15160       0.00000       0.00000       0.00000  
                                                                                                                               600.00000       1.46700       0.12225      23.97000       2.08000      23.55000      26.02000      50.44000      19.95000       0.21480       0.15420       0.00000       0.00000       0.00000  
                                                                                                                              1000.00000       1.49500       0.12010      25.02000       2.03700      22.75000      25.64000      51.62000      21.33000       0.21550       0.15550       0.00000       0.00000       0.00000  
                                                                                                                              2000.00000       1.50200       0.11660      26.27000       2.09200      22.17000      25.27000      52.56000      22.28000       0.21580       0.15640       0.00000       0.00000       0.00000  
DSOLMap_1793                      6                 C    2000.00000       0.50000       0.50000  WIT_texture                
                                                                                                                                50.00000       1.38800       0.08610      65.70000       1.57200      18.40000      15.18000      66.30000      10.37500       0.21750       0.13570       0.00000       0.00000       0.00000  
                                                                                                                               100.00000       1.40600       0.08590      58.28000       1.32000      20.64000      14.74000      64.70000      10.95000       0.21640       0.13540       0.00000       0.00000       0.00000  
                                                                                                                               300.00000       1.43600       0.08080      43.40000       0.84400      24.22000      14.19000      61.56000      11.59000       0.21470       0.13750       0.00000       0.00000       0.00000  
                                                                                                                               600.00000       1.46100       0.07290      28.02000       0.52100      26.58000      13.99000      59.40000      12.75000       0.21370       0.13820       0.00000       0.00000       0.00000  
                                                                                                                              1000.00000       1.47000       0.07350      27.81000       0.46040      26.47000      14.01600      59.50000      14.08600       0.21390       0.13890       0.00000       0.00000       0.00000  
                                                                                                                              2000.00000       1.47700       0.07080      28.36000       0.43430      26.05000      14.03000      59.94000      15.37000       0.21400       0.13940       0.00000       0.00000       0.00000  
DSOLMap_785                       6                 C    2000.00000       0.50000       0.50000  WIT_texture                
                                                                                                                                50.00000       1.31900       0.10840      45.25000       2.22900      24.38000      17.06000      58.56000       7.48400       0.21450       0.13040       0.00000       0.00000       0.00000  
                                                                                                                               100.00000       1.33700       0.10570      42.72000       1.94800      25.36000      16.77000      57.88000       8.03000       0.21410       0.13060       0.00000       0.00000       0.00000  
                                                                                                                               300.00000       1.36800       0.10156      33.78000       1.37500      28.64000      16.11000      55.25000       8.62500       0.21280       0.13510       0.00000       0.00000       0.00000  
                                                                                                                               600.00000       1.39200       0.09454      21.92000       1.00800      31.30000      15.79000      52.90000       9.74000       0.21170       0.13710       0.00000       0.00000       0.00000  
                                                                                                                              1000.00000       1.39900       0.09515      20.90000       0.92630      31.44000      15.79000      52.75000      10.98000       0.21170       0.13780       0.00000       0.00000       0.00000  
                                                                                                                              2000.00000       1.40600       0.09140      20.52000       0.85700      31.02000      16.00000      52.97000      12.21000       0.21190       0.13880       0.00000       0.00000       0.00000  
DSOLMap_1409                      6                 C    2000.00000       0.50000       0.50000  WIT_texture                
                                                                                                                                50.00000       1.18900       0.16910      36.30000       8.61000      21.44000      28.84000      49.75000      11.54000       0.21340       0.13650       0.00000       0.00000       0.00000  
                                                                                                                               100.00000       1.27200       0.16690      34.10000       6.58200      22.10000      28.47000      49.47000      11.98400       0.21310       0.13650       0.00000       0.00000       0.00000  
                                                                                                                               300.00000       1.34100       0.15720      28.98000       4.99600      24.34000      26.66000      48.90000      12.53000       0.21280       0.14050       0.00000       0.00000       0.00000  
                                                                                                                               600.00000       1.39300       0.14860      23.60000       4.51600      25.31000      26.25000      48.44000      13.74000       0.21250       0.14370       0.00000       0.00000       0.00000  
                                                                                                                              1000.00000       1.41800       0.14490      23.10000       4.60500      24.84000      26.12000      49.03000      14.78000       0.21280       0.14490       0.00000       0.00000       0.00000  
                                                                                                                              2000.00000       1.43000       0.14040      22.89000       4.70300      24.52000      26.14000      49.34000      15.59000       0.21300       0.14550       0.00000       0.00000       0.00000  
DSOLMap_1361                      6                 C    2000.00000       0.50000       0.50000  WIT_texture                
                                                                                                                                50.00000       1.18300       0.17480      35.72000      10.82000      22.12000      28.11000      49.88000      11.42000       0.21240       0.13530       0.00000       0.00000       0.00000  
                                                                                                                               100.00000       1.27400       0.17300      33.62000       7.97300      23.14000      26.89000      49.84000      11.89000       0.21200       0.13430       0.00000       0.00000       0.00000  
                                                                                                                               300.00000       1.34200       0.16260      28.58000       6.44000      24.88000      26.10000      49.00000      12.48000       0.21170       0.13770       0.00000       0.00000       0.00000  
                                                                                                                               600.00000       1.38900       0.15380      23.44000       6.01000      25.83000      25.77000      48.40000      13.66000       0.21140       0.13990       0.00000       0.00000       0.00000  
                                                                                                                              1000.00000       1.41200       0.15040      22.77000       6.31200      25.48000      25.72000      48.78000      14.69000       0.21150       0.14070       0.00000       0.00000       0.00000  
                                                                                                                              2000.00000       1.42200       0.14700      22.30000       6.67600      25.30000      25.83000      48.88000      15.47000       0.21170       0.14110       0.00000       0.00000       0.00000  
DSOLMap_1845                      6                 C    2000.00000       0.50000       0.50000  WIT_texture                
                                                                                                                                50.00000       1.19900       0.15360      46.47000       5.15000      15.28000      31.73000      53.06000      15.71000       0.21750       0.15010       0.00000       0.00000       0.00000  
                                                                                                                               100.00000       1.28400       0.15110      41.94000       4.20000      16.40000      31.77000      51.78000      16.14000       0.21720       0.15010       0.00000       0.00000       0.00000  
                                                                                                                               300.00000       1.35300       0.14540      37.44000       2.66400      17.69000      31.22000      51.10000      16.94000       0.21750       0.15430       0.00000       0.00000       0.00000  
                                                                                                                               600.00000       1.40200       0.13890      33.97000       2.21000      18.11000      30.38000      51.53000      19.11000       0.21780       0.15780       0.00000       0.00000       0.00000  
                                                                                                                              1000.00000       1.42700       0.13590      35.47000       2.13300      17.44000      29.81000      52.75000      20.60000       0.21830       0.15930       0.00000       0.00000       0.00000  
                                                                                                                              2000.00000       1.43750       0.13290      36.62000       2.01400      17.14000      29.20000      53.66000      21.22000       0.21840       0.16020       0.00000       0.00000       0.00000  
DSOLMap_1445                      6                 C    2000.00000       0.50000       0.50000  WIT_texture                
                                                                                                                                50.00000       1.11300       0.18840      44.22000      10.83000      18.58000      29.40000      51.90000      10.26600       0.21240       0.13320       0.00000       0.00000       0.00000  
                                                                                                                               100.00000       1.24300       0.18860      43.94000       8.12000      18.56000      28.33000      53.12000      10.63000       0.21250       0.13330       0.00000       0.00000       0.00000  