sweep.ops: written by SWAT+ editor v3.0.0 on 2024-06-21 16:08 for SWAT+ rev.61.0
name                   swp_eff     frac_curb  description
high_eff               0.80000       0.90000  
