topography.hyd: written by SWAT+ editor v3.0.0 on 2024-06-21 16:08 for SWAT+ rev.61.0
name                       slp       slp_len       lat_len      dist_cha         depos  
topohru0001            0.04545      60.00000      60.00000     121.00000       0.00000  
topohru0002            0.18641      10.00000      10.00000     121.00000       0.00000  
topohru0003            0.00661     121.00000     121.00000     121.00000       0.00000  
topohru0004            0.04445      60.00000      60.00000     121.00000       0.00000  
topohru0005            0.00578     121.00000     121.00000     121.00000       0.00000  
topohru0006            0.15797      10.00000      10.00000     121.00000       0.00000  
topohru0007            0.05083      30.00000      30.00000     121.00000       0.00000  
topohru0008            0.10298      10.00000      10.00000     121.00000       0.00000  
topohru0009            0.00980     121.00000     121.00000     121.00000       0.00000  
topohru0010            0.00750     121.00000     121.00000     121.00000       0.00000  
topohru0011            0.04122      60.00000      60.00000     121.00000       0.00000  
topohru0012            0.10816      10.00000      10.00000     121.00000       0.00000  
topohru0013            0.00837     121.00000     121.00000     121.00000       0.00000  
topohru0014            0.02386      90.00000      90.00000     121.00000       0.00000  
topohru0015            0.15694      10.00000      10.00000     121.00000       0.00000  
topohru0016            0.00496     121.00000     121.00000     121.00000       0.00000  
topohru0017            0.04414      60.00000      60.00000     121.00000       0.00000  
topohru0018            0.19688      10.00000      10.00000     121.00000       0.00000  
topohru0019            0.00485     121.00000     121.00000     121.00000       0.00000  
topohru0020            0.03623      60.00000      60.00000     121.00000       0.00000  
topohru0021            0.00493     121.00000     121.00000     121.00000       0.00000  
topohru0022            0.03447      60.00000      60.00000     121.00000       0.00000  
topohru0023            0.09683      10.00000      10.00000     121.00000       0.00000  
topohru0024            0.00486     121.00000     121.00000     121.00000       0.00000  
topohru0025            0.05644      30.00000      30.00000     121.00000       0.00000  
topohru0026            0.10107      10.00000      10.00000     121.00000       0.00000  
topohru0027            0.00577     121.00000     121.00000     121.00000       0.00000  
topohru0028            0.02734      90.00000      90.00000     121.00000       0.00000  
topohru0029            0.00513     121.00000     121.00000     121.00000       0.00000  
topohru0030            0.00578     121.00000     121.00000     121.00000       0.00000  
topohru0031            0.03749      60.00000      60.00000     121.00000       0.00000  
topohru0032            0.17573      10.00000      10.00000     121.00000       0.00000  
topohru0033            0.04789      60.00000      60.00000     121.00000       0.00000  
topohru0034            0.00456     121.00000     121.00000     121.00000       0.00000  
topohru0035            0.19762      10.00000      10.00000     121.00000       0.00000  
topohru0036            0.00529     121.00000     121.00000     121.00000       0.00000  
topohru0037            0.10434      10.00000      10.00000     121.00000       0.00000  
topohru0038            0.04432      60.00000      60.00000     121.00000       0.00000  
topohru0039            0.05238      30.00000      30.00000     121.00000       0.00000  
topohru0040            0.09860      10.00000      10.00000     121.00000       0.00000  
topohru0041            0.00678     121.00000     121.00000     121.00000       0.00000  
topohru0042            0.00331     121.00000     121.00000     121.00000       0.00000  
topohru0043            0.00482     121.00000     121.00000     121.00000       0.00000  
topohru0044            0.03516      60.00000      60.00000     121.00000       0.00000  
topohru0045            0.00519     121.00000     121.00000     121.00000       0.00000  
topohru0046            0.02499      90.00000      90.00000     121.00000       0.00000  
topohru0047            0.00666     121.00000     121.00000     121.00000       0.00000  
topohru0048            0.03638      60.00000      60.00000     121.00000       0.00000  
topohru0049            0.09139      10.00000      10.00000     121.00000       0.00000  
topohru0050            0.22699      10.00000      10.00000     121.00000       0.00000  
topohru0051            0.05313      30.00000      30.00000     121.00000       0.00000  
topohru0052            0.01247      90.00000      90.00000     121.00000       0.00000  
topohru0053            0.21472      10.00000      10.00000     121.00000       0.00000  
topohru0054            0.04877      60.00000      60.00000     121.00000       0.00000  
topohru0055            0.01067      90.00000      90.00000     121.00000       0.00000  
topohru0056            0.26244      10.00000      10.00000     121.00000       0.00000  
topohru0057            0.07137      30.00000      30.00000     121.00000       0.00000  
topohru0058            0.21629      10.00000      10.00000     121.00000       0.00000  
topohru0059            0.05628      30.00000      30.00000     121.00000       0.00000  
topohru0060            0.01403      90.00000      90.00000     121.00000       0.00000  
topohru0061            0.05304      30.00000      30.00000     121.00000       0.00000  
topohru0062            0.19784      10.00000      10.00000     121.00000       0.00000  
topohru0063            0.00690     121.00000     121.00000     121.00000       0.00000  
topohru0064            0.05653      30.00000      30.00000     121.00000       0.00000  
topohru0065            0.01284      90.00000      90.00000     121.00000       0.00000  
topohru0066            0.03951      60.00000      60.00000     121.00000       0.00000  
topohru0067            0.01177      90.00000      90.00000     121.00000       0.00000  
topohru0068            0.15222      10.00000      10.00000     121.00000       0.00000  
topohru0069            0.04971      60.00000      60.00000     121.00000       0.00000  
topohru0070            0.09626      10.00000      10.00000     121.00000       0.00000  
topohru0071            0.12788      10.00000      10.00000     121.00000       0.00000  
topohru0072            0.05291      30.00000      30.00000     121.00000       0.00000  
topohru0073            0.01065      90.00000      90.00000     121.00000       0.00000  
topohru0074            0.05592      30.00000      30.00000     121.00000       0.00000  
topohru0075            0.10789      10.00000      10.00000     121.00000       0.00000  
topohru0076            0.01337      90.00000      90.00000     121.00000       0.00000  
topohru0077            0.13952      10.00000      10.00000     121.00000       0.00000  
topohru0078            0.05570      30.00000      30.00000     121.00000       0.00000  
topohru0079            0.00891     121.00000     121.00000     121.00000       0.00000  
topohru0080            0.11991      10.00000      10.00000     121.00000       0.00000  
topohru0081            0.05620      30.00000      30.00000     121.00000       0.00000  
topohru0082            0.01506      90.00000      90.00000     121.00000       0.00000  
topohru0083            0.06608      30.00000      30.00000     121.00000       0.00000  
topohru0084            0.09400      10.00000      10.00000     121.00000       0.00000  
topohru0085            0.12590      10.00000      10.00000     121.00000       0.00000  
topohru0086            0.06541      30.00000      30.00000     121.00000       0.00000  
topohru0087            0.01084      90.00000      90.00000     121.00000       0.00000  
topohru0088            0.06551      30.00000      30.00000     121.00000       0.00000  
topohru0089            0.11326      10.00000      10.00000     121.00000       0.00000  
topohru0090            0.13295      10.00000      10.00000     121.00000       0.00000  
topohru0091            0.12438      10.00000      10.00000     121.00000       0.00000  
topohru0092            0.05884      30.00000      30.00000     121.00000       0.00000  
topohru0093            0.12534      10.00000      10.00000     121.00000       0.00000  
topohru0094            0.05431      30.00000      30.00000     121.00000       0.00000  
topohru0095            0.04629      60.00000      60.00000     121.00000       0.00000  
topohru0096            0.15793      10.00000      10.00000     121.00000       0.00000  
topohru0097            0.01489      90.00000      90.00000     121.00000       0.00000  
topohru0098            0.05020      30.00000      30.00000     121.00000       0.00000  
topohru0099            0.08909      10.00000      10.00000     121.00000       0.00000  
topohru0100            0.01342      90.00000      90.00000     121.00000       0.00000  
topohru0101            0.19357      10.00000      10.00000     121.00000       0.00000  
topohru0102            0.04369      60.00000      60.00000     121.00000       0.00000  
topohru0103            0.01184      90.00000      90.00000     121.00000       0.00000  
topohru0104            0.04638      60.00000      60.00000     121.00000       0.00000  
topohru0105            0.00654     121.00000     121.00000     121.00000       0.00000  
topohru0106            0.13140      10.00000      10.00000     121.00000       0.00000  
topohru0107            0.04388      60.00000      60.00000     121.00000       0.00000  
topohru0108            0.14074      10.00000      10.00000     121.00000       0.00000  
topohru0109            0.00604     121.00000     121.00000     121.00000       0.00000  
topohru0110            0.11193      10.00000      10.00000     121.00000       0.00000  
topohru0111            0.03930      60.00000      60.00000     121.00000       0.00000  
topohru0112            0.00535     121.00000     121.00000     121.00000       0.00000  
topohru0113            0.00479     121.00000     121.00000     121.00000       0.00000  
topohru0114            0.04251      60.00000      60.00000     121.00000       0.00000  
topohru0115            0.12013      10.00000      10.00000     121.00000       0.00000  
topohru0116            0.05057      30.00000      30.00000     121.00000       0.00000  
topohru0117            0.00976     121.00000     121.00000     121.00000       0.00000  
topohru0118            0.13773      10.00000      10.00000     121.00000       0.00000  
topohru0119            0.10317      10.00000      10.00000     121.00000       0.00000  
topohru0120            0.04921      60.00000      60.00000     121.00000       0.00000  
topohru0121            0.00564     121.00000     121.00000     121.00000       0.00000  
topohru0122            0.01139      90.00000      90.00000     121.00000       0.00000  
topohru0123            0.05219      30.00000      30.00000     121.00000       0.00000  
topohru0124            0.08447      10.00000      10.00000     121.00000       0.00000  
topohru0125            0.04354      60.00000      60.00000     121.00000       0.00000  
topohru0126            0.01370      90.00000      90.00000     121.00000       0.00000  
topohru0127            0.08705      10.00000      10.00000     121.00000       0.00000  
topohru0128            0.04721      60.00000      60.00000     121.00000       0.00000  
topohru0129            0.11621      10.00000      10.00000     121.00000       0.00000  
topohru0130            0.00579     121.00000     121.00000     121.00000       0.00000  
topohru0131            0.04376      60.00000      60.00000     121.00000       0.00000  
topohru0132            0.10734      10.00000      10.00000     121.00000       0.00000  
topohru0133            0.12241      10.00000      10.00000     121.00000       0.00000  
topohru0134            0.04833      60.00000      60.00000     121.00000       0.00000  
topohru0135            0.00601     121.00000     121.00000     121.00000       0.00000  
topohru0136            0.14446      10.00000      10.00000     121.00000       0.00000  
topohru0137            0.10041      10.00000      10.00000     121.00000       0.00000  
topohru0138            0.00592     121.00000     121.00000     121.00000       0.00000  
topohru0139            0.05244      30.00000      30.00000     121.00000       0.00000  
topohru0140            0.00741     121.00000     121.00000     121.00000       0.00000  
topohru0141            0.16976      10.00000      10.00000     121.00000       0.00000  
topohru0142            0.04655      60.00000      60.00000     121.00000       0.00000  
topohru0143            0.04526      60.00000      60.00000     121.00000       0.00000  
topohru0144            0.00516     121.00000     121.00000     121.00000       0.00000  
topohru0145            0.10944      10.00000      10.00000     121.00000       0.00000  
topohru0146            0.00616     121.00000     121.00000     121.00000       0.00000  
topohru0147            0.14510      10.00000      10.00000     121.00000       0.00000  
topohru0148            0.04611      60.00000      60.00000     121.00000       0.00000  
topohru0149            0.04473      60.00000      60.00000     121.00000       0.00000  
topohru0150            0.00762     121.00000     121.00000     121.00000       0.00000  
topohru0151            0.10051      10.00000      10.00000     121.00000       0.00000  
topohru0152            0.04282      60.00000      60.00000     121.00000       0.00000  
topohru0153            0.09965      10.00000      10.00000     121.00000       0.00000  
topohru0154            0.00663     121.00000     121.00000     121.00000       0.00000  
topohru0155            0.00725     121.00000     121.00000     121.00000       0.00000  
topohru0156            0.04633      60.00000      60.00000     121.00000       0.00000  
topohru0157            0.10156      10.00000      10.00000     121.00000       0.00000  
topohru0158            0.10932      10.00000      10.00000     121.00000       0.00000  
topohru0159            0.00873     121.00000     121.00000     121.00000       0.00000  
topohru0160            0.04925      60.00000      60.00000     121.00000       0.00000  
topohru0161            0.00636     121.00000     121.00000     121.00000       0.00000  
topohru0162            0.10579      10.00000      10.00000     121.00000       0.00000  
topohru0163            0.04429      60.00000      60.00000     121.00000       0.00000  
topohru0164            0.05167      30.00000      30.00000     121.00000       0.00000  
topohru0165            0.00669     121.00000     121.00000     121.00000       0.00000  
topohru0166            0.09572      10.00000      10.00000     121.00000       0.00000  
topohru0167            0.26468      10.00000      10.00000     121.00000       0.00000  
topohru0168            0.05563      30.00000      30.00000     121.00000       0.00000  
topohru0169            0.01105      90.00000      90.00000     121.00000       0.00000  
topohru0170            0.32207      10.00000      10.00000     121.00000       0.00000  
topohru0171            0.05217      30.00000      30.00000     121.00000       0.00000  
topohru0172            0.00944     121.00000     121.00000     121.00000       0.00000  
topohru0173            0.32509      10.00000      10.00000     121.00000       0.00000  
topohru0174            0.45980      10.00000      10.00000     121.00000       0.00000  
topohru0175            0.39582      10.00000      10.00000     121.00000       0.00000  
topohru0176            0.35838      10.00000      10.00000     121.00000       0.00000  
topohru0177            0.05636      30.00000      30.00000     121.00000       0.00000  
topohru0178            0.00580     121.00000     121.00000     121.00000       0.00000  
topohru0179            0.33985      10.00000      10.00000     121.00000       0.00000  
topohru0180            0.00434     121.00000     121.00000     121.00000       0.00000  
topohru0181            0.05035      30.00000      30.00000     121.00000       0.00000  
topohru0182            0.33570      10.00000      10.00000     121.00000       0.00000  
topohru0183            0.00340     121.00000     121.00000     121.00000       0.00000  
topohru0184            0.05521      30.00000      30.00000     121.00000       0.00000  
topohru0185            0.24506      10.00000      10.00000     121.00000       0.00000  
topohru0186            0.05090      30.00000      30.00000     121.00000       0.00000  
topohru0187            0.00789     121.00000     121.00000     121.00000       0.00000  
topohru0188            0.37412      10.00000      10.00000     121.00000       0.00000  
topohru0189            0.04508      60.00000      60.00000     121.00000       0.00000  
topohru0190            0.12520      10.00000      10.00000     121.00000       0.00000  
topohru0191            0.06951      30.00000      30.00000     121.00000       0.00000  
topohru0192            0.18630      10.00000      10.00000     121.00000       0.00000  
topohru0193            0.05276      30.00000      30.00000     121.00000       0.00000  
topohru0194            0.00989     121.00000     121.00000     121.00000       0.00000  
topohru0195            0.24760      10.00000      10.00000     121.00000       0.00000  
topohru0196            0.04733      60.00000      60.00000     121.00000       0.00000  
topohru0197            0.01478      90.00000      90.00000     121.00000       0.00000  
topohru0198            0.24248      10.00000      10.00000     121.00000       0.00000  
topohru0199            0.06081      30.00000      30.00000     121.00000       0.00000  
topohru0200            0.01050      90.00000      90.00000     121.00000       0.00000  
topohru0201            0.20042      10.00000      10.00000     121.00000       0.00000  
topohru0202            0.04600      60.00000      60.00000     121.00000       0.00000  
topohru0203            0.01058      90.00000      90.00000     121.00000       0.00000  
topohru0204            0.12441      10.00000      10.00000     121.00000       0.00000  
topohru0205            0.06884      30.00000      30.00000     121.00000       0.00000  
topohru0206            0.01998      90.00000      90.00000     121.00000       0.00000  
topohru0207            0.11528      10.00000      10.00000     121.00000       0.00000  
topohru0208            0.04737      60.00000      60.00000     121.00000       0.00000  
topohru0209            0.01056      90.00000      90.00000     121.00000       0.00000  
topohru0210            0.05109      30.00000      30.00000     121.00000       0.00000  
topohru0211            0.23464      10.00000      10.00000     121.00000       0.00000  
topohru0212            0.00672     121.00000     121.00000     121.00000       0.00000  
topohru0213            0.16750      10.00000      10.00000     121.00000       0.00000  
topohru0214            0.01332      90.00000      90.00000     121.00000       0.00000  
topohru0215            0.04993      60.00000      60.00000     121.00000       0.00000  
topohru0216            0.23427      10.00000      10.00000     121.00000       0.00000  
topohru0217            0.00267     121.00000     121.00000     121.00000       0.00000  
topohru0218            0.05747      30.00000      30.00000     121.00000       0.00000  
topohru0219            0.22380      10.00000      10.00000     121.00000       0.00000  
topohru0220            0.05406      30.00000      30.00000     121.00000       0.00000  
topohru0221            0.01007      90.00000      90.00000     121.00000       0.00000  
topohru0222            0.05235      30.00000      30.00000     121.00000       0.00000  
topohru0223            0.13387      10.00000      10.00000     121.00000       0.00000  
topohru0224            0.01091      90.00000      90.00000     121.00000       0.00000  
topohru0225            0.08873      10.00000      10.00000     121.00000       0.00000  
topohru0226            0.05246      30.00000      30.00000     121.00000       0.00000  
topohru0227            0.00770     121.00000     121.00000     121.00000       0.00000  
topohru0228            0.29150      10.00000      10.00000     121.00000       0.00000  
topohru0229            0.06620      30.00000      30.00000     121.00000       0.00000  
topohru0230            0.00000     121.00000     121.00000     121.00000       0.00000  
topohru0231            0.30171      10.00000      10.00000     121.00000       0.00000  
topohru0232            0.05515      30.00000      30.00000     121.00000       0.00000  
topohru0233            0.00000     121.00000     121.00000     121.00000       0.00000  
topohru0234            0.27587      10.00000      10.00000     121.00000       0.00000  
topohru0235            0.00468     121.00000     121.00000     121.00000       0.00000  
topohru0236            0.03732      60.00000      60.00000     121.00000       0.00000  
topohru0237            0.03082      60.00000      60.00000     121.00000       0.00000  
topohru0238            0.00691     121.00000     121.00000     121.00000       0.00000  
topohru0239            0.00609     121.00000     121.00000     121.00000       0.00000  
topohru0240            0.03732      60.00000      60.00000     121.00000       0.00000  
topohru0241            0.09291      10.00000      10.00000     121.00000       0.00000  
topohru0242            0.14808      10.00000      10.00000     121.00000       0.00000  
topohru0243            0.05104      30.00000      30.00000     121.00000       0.00000  
topohru0244            0.01229      90.00000      90.00000     121.00000       0.00000  
topohru0245            0.17948      10.00000      10.00000     121.00000       0.00000  
topohru0246            0.05393      30.00000      30.00000     121.00000       0.00000  
topohru0247            0.15952      10.00000      10.00000     121.00000       0.00000  
topohru0248            0.04764      60.00000      60.00000     121.00000       0.00000  
topohru0249            0.01112      90.00000      90.00000     121.00000       0.00000  
topohru0250            0.19437      10.00000      10.00000     121.00000       0.00000  
topohru0251            0.05065      30.00000      30.00000     121.00000       0.00000  
topohru0252            0.00792     121.00000     121.00000     121.00000       0.00000  
topohru0253            0.14803      10.00000      10.00000     121.00000       0.00000  
topohru0254            0.04851      60.00000      60.00000     121.00000       0.00000  
topohru0255            0.11868      10.00000      10.00000     121.00000       0.00000  
topohru0256            0.06530      30.00000      30.00000     121.00000       0.00000  
topohru0257            0.12073      10.00000      10.00000     121.00000       0.00000  
topohru0258            0.00683     121.00000     121.00000     121.00000       0.00000  
topohru0259            0.04316      60.00000      60.00000     121.00000       0.00000  
topohru0260            0.16334      10.00000      10.00000     121.00000       0.00000  
topohru0261            0.01090      90.00000      90.00000     121.00000       0.00000  
topohru0262            0.04848      60.00000      60.00000     121.00000       0.00000  
topohru0263            0.13162      10.00000      10.00000     121.00000       0.00000  
topohru0264            0.05684      30.00000      30.00000     121.00000       0.00000  
topohru0265            0.00746     121.00000     121.00000     121.00000       0.00000  
topohru0266            0.11355      10.00000      10.00000     121.00000       0.00000  
topohru0267            0.04610      60.00000      60.00000     121.00000       0.00000  
topohru0268            0.15166      10.00000      10.00000     121.00000       0.00000  
topohru0269            0.00825     121.00000     121.00000     121.00000       0.00000  
topohru0270            0.03740      60.00000      60.00000     121.00000       0.00000  
topohru0271            0.01792      90.00000      90.00000     121.00000       0.00000  
topohru0272            0.03331      60.00000      60.00000     121.00000       0.00000  
topohru0273            0.01360      90.00000      90.00000     121.00000       0.00000  
topohru0274            0.03590      60.00000      60.00000     121.00000       0.00000  
topohru0275            0.01053      90.00000      90.00000     121.00000       0.00000  
topohru0276            0.13900      10.00000      10.00000     121.00000       0.00000  
topohru0277            0.15301      10.00000      10.00000     121.00000       0.00000  
topohru0278            0.03972      60.00000      60.00000     121.00000       0.00000  
topohru0279            0.00699     121.00000     121.00000     121.00000       0.00000  
topohru0280            0.00775     121.00000     121.00000     121.00000       0.00000  
topohru0281            0.03619      60.00000      60.00000     121.00000       0.00000  
topohru0282            0.17278      10.00000      10.00000     121.00000       0.00000  
topohru0283            0.04501      60.00000      60.00000     121.00000       0.00000  
topohru0284            0.11301      10.00000      10.00000     121.00000       0.00000  
topohru0285            0.00537     121.00000     121.00000     121.00000       0.00000  
topohru0286            0.04604      60.00000      60.00000     121.00000       0.00000  
topohru0287            0.00903     121.00000     121.00000     121.00000       0.00000  
topohru0288            0.16346      10.00000      10.00000     121.00000       0.00000  
topohru0289            0.05185      30.00000      30.00000     121.00000       0.00000  
topohru0290            0.12249      10.00000      10.00000     121.00000       0.00000  
topohru0291            0.00905     121.00000     121.00000     121.00000       0.00000  
topohru0292            0.21526      10.00000      10.00000     121.00000       0.00000  
topohru0293            0.02838      90.00000      90.00000     121.00000       0.00000  
topohru0294            0.00842     121.00000     121.00000     121.00000       0.00000  
topohru0295            0.04498      60.00000      60.00000     121.00000       0.00000  
topohru0296            0.09431      10.00000      10.00000     121.00000       0.00000  
topohru0297            0.04359      60.00000      60.00000     121.00000       0.00000  
topohru0298            0.09969      10.00000      10.00000     121.00000       0.00000  
topohru0299            0.00791     121.00000     121.00000     121.00000       0.00000  
topohru0300            0.12272      10.00000      10.00000     121.00000       0.00000  
topohru0301            0.00000     121.00000     121.00000     121.00000       0.00000  
topohru0302            0.05031      30.00000      30.00000     121.00000       0.00000  
topohru0303            0.11227      10.00000      10.00000     121.00000       0.00000  
topohru0304            0.00663     121.00000     121.00000     121.00000       0.00000  
topohru0305            0.03922      60.00000      60.00000     121.00000       0.00000  
topohru0306            0.10016      10.00000      10.00000     121.00000       0.00000  
topohru0307            0.04615      60.00000      60.00000     121.00000       0.00000  
topohru0308            0.00642     121.00000     121.00000     121.00000       0.00000  
topohru0309            0.17070      10.00000      10.00000     121.00000       0.00000  
topohru0310            0.00600     121.00000     121.00000     121.00000       0.00000  
topohru0311            0.03224      60.00000      60.00000     121.00000       0.00000  
topohru0312            0.21781      10.00000      10.00000     121.00000       0.00000  
topohru0313            0.00769     121.00000     121.00000     121.00000       0.00000  
topohru0314            0.03974      60.00000      60.00000     121.00000       0.00000  
topohru0315            0.00843     121.00000     121.00000     121.00000       0.00000  
topohru0316            0.04339      60.00000      60.00000     121.00000       0.00000  
topohru0317            0.00497     121.00000     121.00000     121.00000       0.00000  
topohru0318            0.04378      60.00000      60.00000     121.00000       0.00000  
topohru0319            0.17868      10.00000      10.00000     121.00000       0.00000  
topohru0320            0.00219     121.00000     121.00000     121.00000       0.00000  
topohru0321            0.04745      60.00000      60.00000     121.00000       0.00000  
topohru0322            0.23001      10.00000      10.00000     121.00000       0.00000  
topohru0323            0.26211      10.00000      10.00000     121.00000       0.00000  
topohru0324            0.06184      30.00000      30.00000     121.00000       0.00000  
topohru0325            0.00453     121.00000     121.00000     121.00000       0.00000  
topohru0326            0.04909      60.00000      60.00000     121.00000       0.00000  
topohru0327            0.13224      10.00000      10.00000     121.00000       0.00000  
topohru0328            0.00616     121.00000     121.00000     121.00000       0.00000  
topohru0329            0.04357      60.00000      60.00000     121.00000       0.00000  
topohru0330            0.14540      10.00000      10.00000     121.00000       0.00000  
topohru0331            0.04786      60.00000      60.00000     121.00000       0.00000  