wnd.cli: Wind speed file names - file written by SWAT+ editor 2024-02-27 21:48:59.697828
filename
wAngles.wnd
wArbucies.wnd
wCassa.wnd
wDosrius.wnd
wFarners.wnd
wGirona.wnd
wMalgrat.wnd
wTagamanent.wnd
