hru.con: written by SWAT+ editor v2.2.0 on 2023-03-22 04:25 for SWAT+ rev.60.5.4
      id  name                gis_id          area           lat           lon          elev       hru               wst       cst      ovfl      rule   out_tot  
       1  hru0001                  1       8.19949      35.65311     127.36763     350.96629         1    s35610n127290e         0         0         0         0  
       2  hru0002                  2       1.47407      35.65036     127.36503     323.87500         2    s35610n127290e         0         0         0         0  
       3  hru0003                  3       0.92129      35.66026     127.37353     347.60000         3    s35610n127290e         0         0         0         0  
       4  hru0004                  4       0.18426      35.65996     127.37356     340.00000         4    s35610n127290e         0         0         0         0  
       5  hru0005                  5       1.10555      35.65007     127.36659     296.83333         5    s35610n127290e         0         0         0         0  
       6  hru0006                  6       0.18426      35.64916     127.36854     264.00000         6    s35610n127290e         0         0         0         0  
       7  hru0007                  7       2.65899      35.64992     127.36359     290.46429         7    s35610n127290e         0         0         0         0  
       8  hru0008                  8       3.51366      35.65007     127.36550     284.32432         8    s35610n127290e         0         0         0         0  
       9  hru0009                  9       0.73703      35.64842     127.35819     335.25000         9    s35610n127290e         0         0         0         0  
      10  hru0010                 10       0.09213      35.64798     127.35860     322.00000        10    s35610n127290e         0         0         0         0  
      11  hru0011                 11       1.84258      35.64350     127.36731     270.30000        11    s35610n127290e         0         0         0         0  
      12  hru0012                 12     110.63657      35.65276     127.36727     362.80693        12    s35610n127290e         0         0         0         0  
      13  hru0013                 13       4.31052      35.64867     127.36088     310.80000        13    s35610n127290e         0         0         0         0  
      14  hru0014                 14      18.58311      35.65073     127.36632     314.97938        14    s35610n127290e         0         0         0         0  
      15  hru0015                 15       0.76631      35.65242     127.36550     310.50000        15    s35610n127290e         0         0         0         0  
      16  hru0016                 16       7.16964      35.65033     127.36930     318.86301        16    s35610n127290e         0         0         0         0  
      17  hru0017                 17       0.58929      35.64862     127.37125     278.66667        17    s35610n127290e         0         0         0         0  
      18  hru0018                 18      12.25706      35.64866     127.36479     289.29600        18    s35610n127290e         0         0         0         0  
      19  hru0019                 19       4.31448      35.64680     127.36287     278.88636        19    s35610n127290e         0         0         0         0  
      20  hru0020                 20      23.75573      35.64857     127.36060     335.96371        20    s35610n127290e         0         0         0         0  
      21  hru0021                 21       0.86210      35.65031     127.36126     332.44444        21    s35610n127290e         0         0         0         0  
      22  hru0022                 22     110.74408      35.65333     127.36776     385.90655        22    s35610n127290e         0         0         0         0  
      23  hru0023                 23       4.23766      35.65277     127.36490     330.71111        23    s35610n127290e         0         0         0         0  
      24  hru0024                 24       0.28251      35.65309     127.36591     312.00000        24    s35610n127290e         0         0         0         0  
      25  hru0025                 25      12.14795      35.64932     127.36428     293.29457        25    s35610n127290e         0         0         0         0  
      26  hru0026                 26       4.23766      35.64780     127.36353     276.37778        26    s35610n127290e         0         0         0         0  
      27  hru0027                 27       0.75336      35.64695     127.36402     257.37500        27    s35610n127290e         0         0         0         0  
      28  hru0028                 28       7.53361      35.65169     127.36876     337.31250        28    s35610n127290e         0         0         0         0  
      29  hru0029                 29       0.84753      35.65081     127.36520     310.55556        29    s35610n127290e         0         0         0         0  
      30  hru0030                 30      11.67272      35.64783     127.36235     312.32520        30    s35610n127290e         0         0         0         0  
      31  hru0031                 31       0.56940      35.64778     127.36523     268.66667        31    s35610n127290e         0         0         0         0  
      32  hru0032                 32       0.92129      35.65350     127.36505     326.60000        32    s35610n127290e         0         0         0         0  
      33  hru0033                 33       0.64490      35.65267     127.36653     301.14286        33    s35610n127290e         0         0         0         0  
      34  hru0034                 34       7.83098      35.65226     127.36523     309.80000        34    s35610n127290e         0         0         0         0  
      35  hru0035                 35      14.55640      35.65089     127.36381     301.20253        35    s35610n127290e         0         0         0         0  
      36  hru0036                 36       2.48749      35.64632     127.36361     267.66667        36    s35610n127290e         0         0         0         0  
      37  hru0037                 37       1.93471      35.65073     127.36120     319.61905        37    s35610n127290e         0         0         0         0  
      38  hru0038                 38       1.38194      35.64906     127.35885     316.66667        38    s35610n127290e         0         0         0         0  
      39  hru0039                 39       0.82916      35.65935     127.37338     332.44444        39    s35610n127290e         0         0         0         0  
      40  hru0040                 40       0.18426      35.65942     127.37422     341.00000        40    s35610n127290e         0         0         0         0  
      41  hru0041                 41       1.28981      35.65019     127.36155     322.28571        41    s35610n127290e         0         0         0         0  
      42  hru0042                 42       1.28981      35.64998     127.36119     319.71429        42    s35610n127290e         0         0         0         0  
      43  hru0043                 43       0.73703      35.64912     127.35948     330.25000        43    s35610n127290e         0         0         0         0  
      44  hru0044                 44      14.15751      35.64838     127.36453     274.49342        44    s35610n127290e         0         0         0         0  
      45  hru0045                 45       6.51991      35.64838     127.36451     279.82857        45    s35610n127290e         0         0         0         0  
      46  hru0046                 46       3.07367      35.64329     127.36367     245.60606        46    s35610n127290e         0         0         0         0  
      47  hru0047                 47       0.37257      35.64911     127.36300     302.25000        47    s35610n127290e         0         0         0         0  
      48  hru0048                 48       0.55885      35.64887     127.36302     304.50000        48    s35610n127290e         0         0         0         0  
      49  hru0049                 49       0.55885      35.64378     127.35963     284.33333        49    s35610n127290e         0         0         0         0  
      50  hru0050                 50       0.09314      35.64526     127.36190     270.00000        50    s35610n127290e         0         0         0         0  
      51  hru0051                 51       0.09314      35.63985     127.36486     228.00000        51    s35610n127290e         0         0         0         0  
      52  hru0052                 52       1.09895      35.64516     127.36665     243.16667        52    s35610n127290e         0         0         0         0  
      53  hru0053                 53       2.19789      35.64400     127.36611     238.54167        53    s35610n127290e         0         0         0         0  
      54  hru0054                 54       0.36632      35.64862     127.36846     256.50000        54    s35610n127290e         0         0         0         0  
      55  hru0055                 55       0.18316      35.64673     127.36820     251.00000        55    s35610n127290e         0         0         0         0  
      56  hru0056                 56       1.00737      35.64856     127.36845     255.00000        56    s35610n127290e         0         0         0         0  
      57  hru0057                 57       0.36632      35.64910     127.36879     258.00000        57    s35610n127290e         0         0         0         0  
      58  hru0058                 58     154.25023      35.64835     127.39205     411.96592        58    s35610n127290e         0         0         0         0  
      59  hru0059                 59       5.32362      35.65006     127.38545     318.07273        59    s35610n127290e         0         0         0         0  
      60  hru0060                 60       2.12945      35.64937     127.38527     300.68182        60    s35610n127290e         0         0         0         0  
      61  hru0061                 61      51.90497      35.64896     127.38879     380.54237        61    s35610n127290e         0         0         0         0  
      62  hru0062                 62       2.76192      35.65007     127.38508     309.93103        62    s35610n127290e         0         0         0         0  
      63  hru0063                 63       1.04762      35.64916     127.38830     309.00000        63    s35610n127290e         0         0         0         0  
      64  hru0064                 64       0.38095      35.64673     127.38882     291.00000        64    s35610n127290e         0         0         0         0  
      65  hru0065                 65       5.56319      35.64500     127.38551     311.18333        65    s35610n127290e         0         0         0         0  
      66  hru0066                 66       0.46360      35.64912     127.39114     303.60000        66    s35610n127290e         0         0         0         0  
      67  hru0067                 67       0.27816      35.64823     127.39261     301.66667        67    s35610n127290e         0         0         0         0  
      68  hru0068                 68       0.55632      35.64828     127.39096     311.33333        68    s35610n127290e         0         0         0         0  
      69  hru0069                 69       0.55632      35.64828     127.39074     304.66667        69    s35610n127290e         0         0         0         0  
      70  hru0070                 70       0.27816      35.64842     127.38974     292.00000        70    s35610n127290e         0         0         0         0  
      71  hru0071                 71       0.09272      35.64677     127.39802     336.00000        71    s35610n127290e         0         0         0         0  
      72  hru0072                 72       0.37088      35.64670     127.39901     347.75000        72    s35610n127290e         0         0         0         0  
      73  hru0073                 73       1.20536      35.64644     127.39921     364.46154        73    s35610n127290e         0         0         0         0  
      74  hru0074                 74       4.02805      35.64755     127.38574     281.18605        74    s35610n127290e         0         0         0         0  
      75  hru0075                 75       0.65573      35.64987     127.38478     299.57143        75    s35610n127290e         0         0         0         0  
      76  hru0076                 76       2.99762      35.64568     127.38433     269.96875        76    s35610n127290e         0         0         0         0  
      77  hru0077                 77       0.09368      35.64952     127.38610     296.00000        77    s35610n127290e         0         0         0         0  
      78  hru0078                 78       0.65573      35.64632     127.38420     272.71429        78    s35610n127290e         0         0         0         0  
      79  hru0079                 79       0.65573      35.64627     127.38547     274.85714        79    s35610n127290e         0         0         0         0  
      80  hru0080                 80       1.89000      35.64467     127.38356     264.85714        80    s35610n127290e         0         0         0         0  
      81  hru0081                 81       0.72000      35.64580     127.38538     271.25000        81    s35610n127290e         0         0         0         0  
      82  hru0082                 82       0.45000      35.64600     127.38582     270.80000        82    s35610n127290e         0         0         0         0  
      83  hru0083                 83       0.18000      35.64425     127.38310     263.00000        83    s35610n127290e         0         0         0         0  
      84  hru0084                 84       0.09000      35.64465     127.38476     265.00000        84    s35610n127290e         0         0         0         0  
      85  hru0085                 85       0.09000      35.64251     127.37878     255.00000        85    s35610n127290e         0         0         0         0  
      86  hru0086                 86       0.18000      35.64210     127.37828     255.00000        86    s35610n127290e         0         0         0         0  
      87  hru0087                 87      65.54257      35.64301     127.37371     352.51502        87    s35610n127290e         0         0         0         0  
      88  hru0088                 88       1.36955      35.64781     127.37718     308.07143        88    s35610n127290e         0         0         0         0  
      89  hru0089                 89       0.48912      35.64743     127.37728     291.80000        89    s35610n127290e         0         0         0         0  
      90  hru0090                 90      69.86630      35.63913     127.37188     325.07552        90    s35610n127290e         0         0         0         0  
      91  hru0091                 91       2.70575      35.64379     127.37578     283.39286        91    s35610n127290e         0         0         0         0  
      92  hru0092                 92       0.28990      35.64224     127.37657     285.33333        92    s35610n127290e         0         0         0         0  
      93  hru0093                 93       0.77307      35.63995     127.37463     282.50000        93    s35610n127290e         0         0         0         0  
      94  hru0094                 94       1.64278      35.63568     127.36601     273.64706        94    s35610n127290e         0         0         0         0  
      95  hru0095                 95       0.09663      35.63548     127.37709     320.00000        95    s35610n127290e         0         0         0         0  
      96  hru0096                 96       0.27813      35.64298     127.37337     254.33333        96    s35610n127290e         0         0         0         0  
      97  hru0097                 97       0.18542      35.64132     127.37000     243.50000        97    s35610n127290e         0         0         0         0  
      98  hru0098                 98       0.83440      35.63850     127.37170     291.44444        98    s35610n127290e         0         0         0         0  
      99  hru0099                 99       0.18542      35.64481     127.37647     262.50000        99    s35610n127290e         0         0         0         0  
     100  hru0100                100       0.92711      35.63956     127.36896     241.90000       100    s35610n127290e         0         0         0         0  
     101  hru0101                101       0.27813      35.63785     127.37103     273.00000       101    s35610n127290e         0         0         0         0  
     102  hru0102                102       0.37085      35.64064     127.36942     251.25000       102    s35610n127290e         0         0         0         0  
     103  hru0103                103       0.27813      35.64002     127.36795     229.33333       103    s35610n127290e         0         0         0         0  
     104  hru0104                104       0.09271      35.63984     127.36883     232.00000       104    s35610n127290e         0         0         0         0  
     105  hru0105                105       0.74169      35.63691     127.36485     241.25000       105    s35610n127290e         0         0         0         0  
     106  hru0106                106       0.09271      35.63714     127.36452     233.00000       106    s35610n127290e         0         0         0         0  
     107  hru0107                107       0.09271      35.63633     127.36484     245.00000       107    s35610n127290e         0         0         0         0  
     108  hru0108                108       1.03871      35.63858     127.36976     251.72727       108    s35610n127290e         0         0         0         0  
     109  hru0109                109       2.54957      35.63826     127.37137     266.48148       109    s35610n127290e         0         0         0         0  
     110  hru0110                110       0.18886      35.63684     127.37627     312.50000       110    s35610n127290e         0         0         0         0  
     111  hru0111                111       0.18886      35.64024     127.36801     232.00000       111    s35610n127290e         0         0         0         0  
     112  hru0112                112       0.37771      35.64017     127.36867     234.75000       112    s35610n127290e         0         0         0         0  
     113  hru0113                113       0.37771      35.63910     127.36734     230.25000       113    s35610n127290e         0         0         0         0  
     114  hru0114                114       0.37771      35.63725     127.37586     318.00000       114    s35610n127290e         0         0         0         0  
     115  hru0115                115       0.27813      35.64351     127.37702     256.66667       115    s35610n127290e         0         0         0         0  
     116  hru0116                116       5.37727      35.64235     127.37597     254.44828       116    s35610n127290e         0         0         0         0  
     117  hru0117                117       1.29796      35.64096     127.37461     254.85714       117    s35610n127290e         0         0         0         0  
     118  hru0118                118       0.18542      35.64144     127.37530     260.00000       118    s35610n127290e         0         0         0         0  
     119  hru0119                119       0.18542      35.63982     127.37330     258.50000       119    s35610n127290e         0         0         0         0  
     120  hru0120                120       0.37085      35.63996     127.37173     255.00000       120    s35610n127290e         0         0         0         0  
     121  hru0121                121       0.09271      35.64010     127.37148     255.00000       121    s35610n127290e         0         0         0         0  
     122  hru0122                122       2.45893      35.64142     127.37480     254.59259       122    s35610n127290e         0         0         0         0  
     123  hru0123                123       0.54643      35.64063     127.37403     255.00000       123    s35610n127290e         0         0         0         0  
     124  hru0124                124       0.18214      35.63969     127.37214     255.00000       124    s35610n127290e         0         0         0         0  
     125  hru0125                125       0.09107      35.64197     127.37746     255.00000       125    s35610n127290e         0         0         0         0  
     126  hru0126                126       0.27321      35.63957     127.36640     233.00000       126    s35610n127290e         0         0         0         0  
     127  hru0127                127       0.09107      35.63930     127.36618     225.00000       127    s35610n127290e         0         0         0         0  
     128  hru0128                128       0.09107      35.63903     127.36552     228.00000       128    s35610n127290e         0         0         0         0  
     129  hru0129                129       0.45536      35.63907     127.37015     238.20000       129    s35610n127290e         0         0         0         0  
     130  hru0130                130       0.09107      35.63929     127.36916     230.00000       130    s35610n127290e         0         0         0         0  
     131  hru0131                131       0.27321      35.63902     127.37060     244.33333       131    s35610n127290e         0         0         0         0  
     132  hru0132                132       0.27321      35.63876     127.36552     224.66667       132    s35610n127290e         0         0         0         0  
     133  hru0133                133       0.91071      35.63866     127.36535     223.40000       133    s35610n127290e         0         0         0         0  
     134  hru0134                134       0.18214      35.63984     127.36801     229.00000       134    s35610n127290e         0         0         0         0  
     135  hru0135                135       0.27321      35.63930     127.36651     226.00000       135    s35610n127290e         0         0         0         0  
     136  hru0136                136       0.81964      35.63897     127.36647     226.11111       136    s35610n127290e         0         0         0         0  
     137  hru0137                137       0.09107      35.63930     127.36850     235.00000       137    s35610n127290e         0         0         0         0  
     138  hru0138                138       0.09107      35.63901     127.37214     256.00000       138    s35610n127290e         0         0         0         0  
     139  hru0139                139       0.09107      35.63929     127.37181     254.00000       139    s35610n127290e         0         0         0         0  
     140  hru0140                140       0.09107      35.63928     127.37214     255.00000       140    s35610n127290e         0         0         0         0  
     141  hru0141                141       0.18214      35.63902     127.37032     235.50000       141    s35610n127290e         0         0         0         0  
     142  hru0142                142       0.09107      35.63796     127.36452     222.00000       142    s35610n127290e         0         0         0         0  
     143  hru0143                143     549.19458      35.63610     127.40978     546.82009       143    s35610n127290e         0         0         0         0  
     144  hru0144                144      22.53402      35.63527     127.41241     457.28205       144    s35610n127290e         0         0         0         0  
     145  hru0145                145       1.34819      35.63567     127.41353     430.71429       145    s35610n127290e         0         0         0         0  
     146  hru0146                146      70.45251      35.63862     127.39529     376.69710       146    s35610n127290e         0         0         0         0  
     147  hru0147                147       5.10662      35.63846     127.39395     346.22222       147    s35610n127290e         0         0         0         0  
     148  hru0148                148       0.66197      35.63858     127.38757     303.00000       148    s35610n127290e         0         0         0         0  
     149  hru0149                149       0.18913      35.63696     127.38174     280.50000       149    s35610n127290e         0         0         0         0  
     150  hru0150                150       3.21528      35.63862     127.40266     352.58824       150    s35610n127290e         0         0         0         0  
     151  hru0151                151       0.56740      35.63739     127.40056     319.00000       151    s35610n127290e         0         0         0         0  
     152  hru0152                152       0.18913      35.63743     127.40343     325.00000       152    s35610n127290e         0         0         0         0  
     153  hru0153                153       0.75654      35.63729     127.38393     281.25000       153    s35610n127290e         0         0         0         0  
     154  hru0154                154       1.89134      35.63729     127.38816     304.15000       154    s35610n127290e         0         0         0         0  
     155  hru0155                155      17.68405      35.63371     127.40424     515.52406       155    s35610n127290e         0         0         0         0  
     156  hru0156                156       1.70221      35.63746     127.39223     303.05556       156    s35610n127290e         0         0         0         0  
     157  hru0157                157       0.56740      35.63828     127.39019     284.16667       157    s35610n127290e         0         0         0         0  
     158  hru0158                158       0.09457      35.63737     127.38041     281.00000       158    s35610n127290e         0         0         0         0  
     159  hru0159                159       0.09457      35.63786     127.39632     314.00000       159    s35610n127290e         0         0         0         0  
     160  hru0160                160       0.47284      35.63693     127.39916     311.60000       160    s35610n127290e         0         0         0         0  
     161  hru0161                161       0.18913      35.63742     127.40393     326.50000       161    s35610n127290e         0         0         0         0  
     162  hru0162                162       1.13481      35.63598     127.40605     375.08333       162    s35610n127290e         0         0         0         0  
     163  hru0163                163       0.28370      35.63700     127.41022     359.66667       163    s35610n127290e         0         0         0         0  
     164  hru0164                164       0.18000      35.64156     127.37828     255.00000       164    s35610n127290e         0         0         0         0  
     165  hru0165                165       0.27000      35.63729     127.40227     320.00000       165    s35610n127290e         0         0         0         0  
     166  hru0166                166       1.53000      35.63793     127.39300     289.82353       166    s35610n127290e         0         0         0         0  
     167  hru0167                167       0.36000      35.63745     127.39648     301.25000       167    s35610n127290e         0         0         0         0  
     168  hru0168                168       0.27000      35.63816     127.38506     266.33333       168    s35610n127290e         0         0         0         0  
     169  hru0169                169       0.09000      35.63816     127.38572     269.00000       169    s35610n127290e         0         0         0         0  
     170  hru0170                170       0.90000      35.63917     127.38254     261.80000       170    s35610n127290e         0         0         0         0  
     171  hru0171                171       0.18000      35.63815     127.38754     273.00000       171    s35610n127290e         0         0         0         0  
     172  hru0172                172       0.09000      35.63816     127.38638     270.00000       172    s35610n127290e         0         0         0         0  
     173  hru0173                173       0.27000      35.63889     127.38362     264.33333       173    s35610n127290e         0         0         0         0  
     174  hru0174                174       0.36000      35.63869     127.38887     282.25000       174    s35610n127290e         0         0         0         0  
     175  hru0175                175       0.27000      35.63816     127.38483     265.66667       175    s35610n127290e         0         0         0         0  
     176  hru0176                176       0.09000      35.63672     127.41121     364.00000       176    s35610n127290e         0         0         0         0  
     177  hru0177                177       1.44000      35.63502     127.41458     397.25000       177    s35610n127290e         0         0         0         0  
     178  hru0178                178       0.27000      35.63500     127.41573     409.33333       178    s35610n127290e         0         0         0         0  
     179  hru0179                179       0.27000      35.63454     127.41661     422.00000       179    s35610n127290e         0         0         0         0  
     180  hru0180                180       0.27000      35.63779     127.38848     278.00000       180    s35610n127290e         0         0         0         0  
     181  hru0181                181       0.81000      35.63785     127.38940     277.88889       181    s35610n127290e         0         0         0         0  
     182  hru0182                182       0.27000      35.63775     127.40206     319.66667       182    s35610n127290e         0         0         0         0  