hmd.cli: Relative humidity file names - file written by SWAT+ editor 2024-05-20 13:16:23.443544
filename
Pipa_HMD.hmd
