pcp.cli: Precipitation file names - file written by SWAT+ editor 2024-05-20 13:16:23.486366
filename
Pipa_PCP.pcp
