soils.sol: written by SWAT+ editor v2.3.3 on 2023-12-13 20:04 for SWAT+ rev.60.5.7
awc = 0.13906778713698
aqxe                              4                 D    1000.00000       0.50000       0.80000  LOAM_CLAY                  
                                                                                                                               200.00000         1.275          0.22         6.25       3.90000      37.50000      40.50000      22.00000       0.00000       0.50000       0.25000      10.80000       0.00000       0.00000  
                                                                                                                               400.00000        1.2075          0.31         6.25       2.20000      44.00000      47.00000       9.00000       0.00000       0.00000       0.00000       1.50000       0.00000       0.00000  
                                                                                                                               600.00000         1.295          0.31         6.25       2.40000      39.50000      42.50000      18.00000       0.00000       0.00000       0.00000       2.10000       0.00000       0.00000  
                                                                                                                              1000.00000          1.21          0.31         6.25       1.50000      25.12500      30.33000      44.54500       0.00000       0.00000       0.00000       0.90000       0.00000       0.00000  
aqxe1                             4                 D    1000.00000       0.50000       0.80000  LOAM_CLAY                  
                                                                                                                               200.00000         1.455          0.22        10.625       3.90000      23.50000      26.50000      50.00000       0.00000       0.50000       0.25000      10.80000       0.00000       0.00000  
                                                                                                                               400.00000          1.36          0.31        10.625       2.20000      26.00000      29.00000      45.00000       0.00000       0.00000       0.00000       1.50000       0.00000       0.00000  
                                                                                                                               600.00000         1.455          0.31        10.625       2.40000      19.50000      22.50000      58.00000       0.00000       0.00000       0.00000       2.10000       0.00000       0.00000  
                                                                                                                              1000.00000          1.41          0.31        10.625       1.50000      25.00000      31.00000      44.00000       0.00000       0.00000       0.00000       0.90000       0.00000       0.00000  
