ls_unit.ele: written by SWAT+ editor v2.2.0 on 2023-03-22 04:25 for SWAT+ rev.60.5.4
      id  name                   obj_typ  obj_typ_no      bsn_frac      sub_frac      reg_frac  
       1  hru0001                    hru           1     5.0974E-4       0.01968       0.00000  
       2  hru0002                    hru           2     9.1639E-5       0.00354       0.00000  
       3  hru0003                    hru           3     5.7275E-5       0.00221       0.00000  
       4  hru0004                    hru           4     1.1455E-5       0.00044       0.00000  
       5  hru0005                    hru           5     6.8729E-5       0.00265       0.00000  
       6  hru0006                    hru           6     1.1455E-5       0.00044       0.00000  
       7  hru0007                    hru           7     1.6530E-4       0.00638       0.00000  
       8  hru0008                    hru           8     2.1844E-4       0.00843       0.00000  
       9  hru0009                    hru           9     4.5820E-5       0.00177       0.00000  
      10  hru0010                    hru          10     5.7275E-6       0.00022       0.00000  
      11  hru0011                    hru          11     1.1455E-4       0.00442       0.00000  
      12  hru0012                    hru          12     6.8780E-3       0.26551       0.00000  
      13  hru0013                    hru          13     2.6797E-4       0.01034       0.00000  
      14  hru0014                    hru          14     1.1553E-3       0.04460       0.00000  
      15  hru0015                    hru          15     4.7640E-5       0.00184       0.00000  
      16  hru0016                    hru          16     4.4572E-4       0.01721       0.00000  
      17  hru0017                    hru          17     3.6635E-5       0.00141       0.00000  
      18  hru0018                    hru          18     7.6199E-4       0.02941       0.00000  
      19  hru0019                    hru          19     2.6822E-4       0.01035       0.00000  
      20  hru0020                    hru          20     1.4768E-3       0.05701       0.00000  
      21  hru0021                    hru          21     5.3595E-5       0.00207       0.00000  
      22  hru0022                    hru          22     6.8847E-3       0.26576       0.00000  
      23  hru0023                    hru          23     2.6345E-4       0.01017       0.00000  
      24  hru0024                    hru          24     1.7563E-5       0.00068       0.00000  
      25  hru0025                    hru          25     7.5521E-4       0.02915       0.00000  
      26  hru0026                    hru          26     2.6345E-4       0.01017       0.00000  
      27  hru0027                    hru          27     4.6835E-5       0.00181       0.00000  
      28  hru0028                    hru          28     4.6835E-4       0.01808       0.00000  
      29  hru0029                    hru          29     5.2689E-5       0.00203       0.00000  
      30  hru0030                    hru          30     7.2567E-4       0.02801       0.00000  
      31  hru0031                    hru          31     3.5398E-5       0.00137       0.00000  
      32  hru0032                    hru          32     5.7275E-5       0.00221       0.00000  
      33  hru0033                    hru          33     4.0092E-5       0.00155       0.00000  
      34  hru0034                    hru          34     4.8683E-4       0.01879       0.00000  
      35  hru0035                    hru          35     9.0494E-4       0.03493       0.00000  
      36  hru0036                    hru          36     1.5464E-4       0.00597       0.00000  
      37  hru0037                    hru          37     1.2028E-4       0.00464       0.00000  
      38  hru0038                    hru          38     8.5912E-5       0.00332       0.00000  
      39  hru0039                    hru          39     5.1547E-5       0.00199       0.00000  
      40  hru0040                    hru          40     1.1455E-5       0.00044       0.00000  
      41  hru0041                    hru          41     8.0184E-5       0.00310       0.00000  
      42  hru0042                    hru          42     8.0184E-5       0.00310       0.00000  
      43  hru0043                    hru          43     4.5820E-5       0.00177       0.00000  
      44  hru0044                    hru          44     8.8014E-4       0.03398       0.00000  
      45  hru0045                    hru          45     4.0533E-4       0.01565       0.00000  
      46  hru0046                    hru          46     1.9108E-4       0.00738       0.00000  
      47  hru0047                    hru          47     2.3162E-5       0.00089       0.00000  
      48  hru0048                    hru          48     3.4742E-5       0.00134       0.00000  
      49  hru0049                    hru          49     3.4742E-5       0.00134       0.00000  
      50  hru0050                    hru          50     5.7904E-6       0.00022       0.00000  
      51  hru0051                    hru          51     5.7904E-6       0.00022       0.00000  
      52  hru0052                    hru          52     6.8319E-5       0.21053       0.00000  
      53  hru0053                    hru          53     1.3664E-4       0.42105       0.00000  
      54  hru0054                    hru          54     2.2773E-5       0.07018       0.00000  
      55  hru0055                    hru          55     1.1387E-5       0.03509       0.00000  
      56  hru0056                    hru          56     6.2626E-5       0.19298       0.00000  
      57  hru0057                    hru          57     2.2773E-5       0.07018       0.00000  
      58  hru0058                    hru          58     9.5894E-3       0.65291       0.00000  
      59  hru0059                    hru          59     3.3096E-4       0.02253       0.00000  
      60  hru0060                    hru          60     1.3238E-4       0.00901       0.00000  
      61  hru0061                    hru          61     3.2268E-3       0.21970       0.00000  
      62  hru0062                    hru          62     1.7170E-4       0.01169       0.00000  
      63  hru0063                    hru          63     6.5128E-5       0.00443       0.00000  
      64  hru0064                    hru          64     2.3683E-5       0.00161       0.00000  
      65  hru0065                    hru          65     3.4585E-4       0.02355       0.00000  
      66  hru0066                    hru          66     2.8821E-5       0.00196       0.00000  
      67  hru0067                    hru          67     1.7293E-5       0.00118       0.00000  
      68  hru0068                    hru          68     3.4585E-5       0.00235       0.00000  
      69  hru0069                    hru          69     3.4585E-5       0.00235       0.00000  
      70  hru0070                    hru          70     1.7293E-5       0.00118       0.00000  
      71  hru0071                    hru          71     5.7642E-6       0.00039       0.00000  
      72  hru0072                    hru          72     2.3057E-5       0.00157       0.00000  
      73  hru0073                    hru          73     7.4934E-5       0.00510       0.00000  
      74  hru0074                    hru          74     2.5041E-4       0.01705       0.00000  
      75  hru0075                    hru          75     4.0765E-5       0.00278       0.00000  
      76  hru0076                    hru          76     1.8636E-4       0.01269       0.00000  
      77  hru0077                    hru          77     5.8236E-6       0.00040       0.00000  
      78  hru0078                    hru          78     4.0765E-5       0.00278       0.00000  
      79  hru0079                    hru          79     4.0765E-5       0.00278       0.00000  
      80  hru0080                    hru          80     1.1750E-4       0.52500       0.00000  
      81  hru0081                    hru          81     4.4761E-5       0.20000       0.00000  
      82  hru0082                    hru          82     2.7975E-5       0.12500       0.00000  
      83  hru0083                    hru          83     1.1190E-5       0.05000       0.00000  
      84  hru0084                    hru          84     5.5951E-6       0.02500       0.00000  
      85  hru0085                    hru          85     5.5951E-6       0.02500       0.00000  
      86  hru0086                    hru          86     1.1190E-5       0.05000       0.00000  
      87  hru0087                    hru          87     4.0746E-3       0.40959       0.00000  
      88  hru0088                    hru          88     8.5142E-5       0.00856       0.00000  
      89  hru0089                    hru          89     3.0408E-5       0.00306       0.00000  
      90  hru0090                    hru          90     4.3434E-3       0.43661       0.00000  
      91  hru0091                    hru          91     1.6821E-4       0.01691       0.00000  
      92  hru0092                    hru          92     1.8023E-5       0.00181       0.00000  
      93  hru0093                    hru          93     4.8060E-5       0.00483       0.00000  
      94  hru0094                    hru          94     1.0213E-4       0.01027       0.00000  
      95  hru0095                    hru          95     6.0075E-6       0.00060       0.00000  
      96  hru0096                    hru          96     1.7291E-5       0.00174       0.00000  
      97  hru0097                    hru          97     1.1527E-5       0.00116       0.00000  
      98  hru0098                    hru          98     5.1873E-5       0.00521       0.00000  
      99  hru0099                    hru          99     1.1527E-5       0.00116       0.00000  
     100  hru0100                    hru         100     5.7637E-5       0.00579       0.00000  
     101  hru0101                    hru         101     1.7291E-5       0.00174       0.00000  
     102  hru0102                    hru         102     2.3055E-5       0.00232       0.00000  
     103  hru0103                    hru         103     1.7291E-5       0.00174       0.00000  
     104  hru0104                    hru         104     5.7637E-6       0.00058       0.00000  
     105  hru0105                    hru         105     4.6109E-5       0.00463       0.00000  
     106  hru0106                    hru         106     5.7637E-6       0.00058       0.00000  
     107  hru0107                    hru         107     5.7637E-6       0.00058       0.00000  
     108  hru0108                    hru         108     6.4574E-5       0.00649       0.00000  
     109  hru0109                    hru         109     1.5850E-4       0.01593       0.00000  
     110  hru0110                    hru         110     1.1741E-5       0.00118       0.00000  
     111  hru0111                    hru         111     1.1741E-5       0.00118       0.00000  
     112  hru0112                    hru         112     2.3482E-5       0.00236       0.00000  
     113  hru0113                    hru         113     2.3482E-5       0.00236       0.00000  
     114  hru0114                    hru         114     2.3482E-5       0.00236       0.00000  
     115  hru0115                    hru         115     1.7291E-5       0.00174       0.00000  
     116  hru0116                    hru         116     3.3429E-4       0.03360       0.00000  
     117  hru0117                    hru         117     8.0691E-5       0.00811       0.00000  
     118  hru0118                    hru         118     1.1527E-5       0.00116       0.00000  
     119  hru0119                    hru         119     1.1527E-5       0.00116       0.00000  
     120  hru0120                    hru         120     2.3055E-5       0.00232       0.00000  
     121  hru0121                    hru         121     5.7637E-6       0.00058       0.00000  
     122  hru0122                    hru         122     1.5287E-4       0.32143       0.00000  
     123  hru0123                    hru         123     3.3970E-5       0.07143       0.00000  
     124  hru0124                    hru         124     1.1323E-5       0.02381       0.00000  
     125  hru0125                    hru         125     5.6617E-6       0.01190       0.00000  
     126  hru0126                    hru         126     1.6985E-5       0.03571       0.00000  
     127  hru0127                    hru         127     5.6617E-6       0.01190       0.00000  
     128  hru0128                    hru         128     5.6617E-6       0.01190       0.00000  
     129  hru0129                    hru         129     2.8309E-5       0.05952       0.00000  
     130  hru0130                    hru         130     5.6617E-6       0.01190       0.00000  
     131  hru0131                    hru         131     1.6985E-5       0.03571       0.00000  
     132  hru0132                    hru         132     1.6985E-5       0.03571       0.00000  
     133  hru0133                    hru         133     5.6617E-5       0.11905       0.00000  
     134  hru0134                    hru         134     1.1323E-5       0.02381       0.00000  
     135  hru0135                    hru         135     1.6985E-5       0.03571       0.00000  
     136  hru0136                    hru         136     5.0955E-5       0.10714       0.00000  
     137  hru0137                    hru         137     5.6617E-6       0.01190       0.00000  
     138  hru0138                    hru         138     5.6617E-6       0.01190       0.00000  
     139  hru0139                    hru         139     5.6617E-6       0.01190       0.00000  
     140  hru0140                    hru         140     5.6617E-6       0.01190       0.00000  
     141  hru0141                    hru         141     1.1323E-5       0.02381       0.00000  
     142  hru0142                    hru         142     5.6617E-6       0.01190       0.00000  
     143  hru0143                    hru         143     3.4142E-2       0.80963       0.00000  
     144  hru0144                    hru         144     1.4009E-3       0.03322       0.00000  
     145  hru0145                    hru         145     8.3814E-5       0.00199       0.00000  
     146  hru0146                    hru         146     4.3799E-3       0.10386       0.00000  
     147  hru0147                    hru         147     3.1747E-4       0.00753       0.00000  
     148  hru0148                    hru         148     4.1153E-5       0.00098       0.00000  
     149  hru0149                    hru         149     1.1758E-5       0.00028       0.00000  
     150  hru0150                    hru         150     1.9989E-4       0.00474       0.00000  
     151  hru0151                    hru         151     3.5274E-5       0.00084       0.00000  
     152  hru0152                    hru         152     1.1758E-5       0.00028       0.00000  
     153  hru0153                    hru         153     4.7032E-5       0.00112       0.00000  
     154  hru0154                    hru         154     1.1758E-4       0.00279       0.00000  
     155  hru0155                    hru         155     1.0994E-3       0.02607       0.00000  
     156  hru0156                    hru         156     1.0582E-4       0.00251       0.00000  
     157  hru0157                    hru         157     3.5274E-5       0.00084       0.00000  
     158  hru0158                    hru         158     5.8790E-6       0.00014       0.00000  
     159  hru0159                    hru         159     5.8790E-6       0.00014       0.00000  
     160  hru0160                    hru         160     2.9395E-5       0.00070       0.00000  
     161  hru0161                    hru         161     1.1758E-5       0.00028       0.00000  
     162  hru0162                    hru         162     7.0548E-5       0.00167       0.00000  
     163  hru0163                    hru         163     1.7637E-5       0.00042       0.00000  
     164  hru0164                    hru         164     1.1190E-5       0.01587       0.00000  
     165  hru0165                    hru         165     1.6785E-5       0.02381       0.00000  
     166  hru0166                    hru         166     9.5117E-5       0.13492       0.00000  
     167  hru0167                    hru         167     2.2380E-5       0.03175       0.00000  
     168  hru0168                    hru         168     1.6785E-5       0.02381       0.00000  
     169  hru0169                    hru         169     5.5951E-6       0.00794       0.00000  
     170  hru0170                    hru         170     5.5951E-5       0.07937       0.00000  
     171  hru0171                    hru         171     1.1190E-5       0.01587       0.00000  
     172  hru0172                    hru         172     5.5951E-6       0.00794       0.00000  
     173  hru0173                    hru         173     1.6785E-5       0.02381       0.00000  
     174  hru0174                    hru         174     2.2380E-5       0.03175       0.00000  
     175  hru0175                    hru         175     1.6785E-5       0.02381       0.00000  
     176  hru0176                    hru         176     5.5951E-6       0.00794       0.00000  
     177  hru0177                    hru         177     8.9522E-5       0.12698       0.00000  
     178  hru0178                    hru         178     1.6785E-5       0.02381       0.00000  
     179  hru0179                    hru         179     1.6785E-5       0.02381       0.00000  
     180  hru0180                    hru         180     1.6785E-5       0.02381       0.00000  
     181  hru0181                    hru         181     5.0356E-5       0.07143       0.00000  
     182  hru0182                    hru         182     1.6785E-5       0.02381       0.00000  
     183  hru0183                    hru         183     1.1190E-5       0.01587       0.00000  
     184  hru0184                    hru         184     5.5951E-6       0.00794       0.00000  
     185  hru0185                    hru         185     5.5951E-6       0.00794       0.00000  
     186  hru0186                    hru         186     5.5951E-6       0.00794       0.00000  
     187  hru0187                    hru         187     1.6785E-5       0.02381       0.00000  
     188  hru0188                    hru         188     1.6785E-5       0.02381       0.00000  
     189  hru0189                    hru         189     5.5951E-6       0.00794       0.00000  
     190  hru0190                    hru         190     1.1190E-5       0.01587       0.00000  
     191  hru0191                    hru         191     1.1190E-5       0.01587       0.00000  
     192  hru0192                    hru         192     5.5951E-6       0.00794       0.00000  
     193  hru0193                    hru         193     1.1190E-5       0.01587       0.00000  
     194  hru0194                    hru         194     1.1190E-5       0.01587       0.00000  
     195  hru0195                    hru         195     1.1190E-5       0.01587       0.00000  
     196  hru0196                    hru         196     1.1190E-5       0.01587       0.00000  
     197  hru0197                    hru         197     5.5951E-6       0.00794       0.00000  
     198  hru0198                    hru         198     5.5951E-6       0.00794       0.00000  
     199  hru0199                    hru         199     5.5951E-6       0.00794       0.00000  
     200  hru0200                    hru         200     5.5951E-6       0.00794       0.00000  
     201  hru0201                    hru         201     2.2380E-5       0.03175       0.00000  
     202  hru0202                    hru         202     1.1190E-5       0.01587       0.00000  
     203  hru0203                    hru         203     5.2145E-3       0.43857       0.00000  
     204  hru0204                    hru         204     1.9898E-4       0.01674       0.00000  
     205  hru0205                    hru         205     2.9262E-5       0.00246       0.00000  
     206  hru0206                    hru         206     3.0432E-4       0.02560       0.00000  
     207  hru0207                    hru         207     8.7785E-5       0.00738       0.00000  
     208  hru0208                    hru         208     1.5177E-4       0.01276       0.00000  
     209  hru0209                    hru         209     5.8371E-6       0.00049       0.00000  
     210  hru0210                    hru         210     9.4043E-5       0.00791       0.00000  
     211  hru0211                    hru         211     1.5987E-3       0.13446       0.00000  
     212  hru0212                    hru         212     8.7557E-5       0.00736       0.00000  
     213  hru0213                    hru         213     4.6697E-5       0.00393       0.00000  
     214  hru0214                    hru         214     9.9231E-5       0.00835       0.00000  
     215  hru0215                    hru         215     9.4134E-5       0.00792       0.00000  
     216  hru0216                    hru         216     2.9417E-4       0.02474       0.00000  
     217  hru0217                    hru         217     1.7650E-5       0.00148       0.00000  
     218  hru0218                    hru         218     7.0601E-5       0.00594       0.00000  
     219  hru0219                    hru         219     2.0592E-4       0.01732       0.00000  
     220  hru0220                    hru         220     1.1767E-5       0.00099       0.00000  
     221  hru0221                    hru         221     2.5887E-4       0.02177       0.00000  
     222  hru0222                    hru         222     2.8240E-4       0.02375       0.00000  
     223  hru0223                    hru         223     2.3534E-5       0.00198       0.00000  
     224  hru0224                    hru         224     2.3534E-5       0.00198       0.00000  
     225  hru0225                    hru         225     6.4717E-5       0.00544       0.00000  
     226  hru0226                    hru         226     3.5300E-5       0.00297       0.00000  
     227  hru0227                    hru         227     5.2951E-5       0.00445       0.00000  
     228  hru0228                    hru         228     3.4731E-5       0.00292       0.00000  
     229  hru0229                    hru         229     7.5250E-5       0.00633       0.00000  
     230  hru0230                    hru         230     1.1577E-5       0.00097       0.00000  
     231  hru0231                    hru         231     2.2575E-4       0.01899       0.00000  
     232  hru0232                    hru         232     2.8942E-5       0.00243       0.00000  
     233  hru0233                    hru         233     6.9462E-5       0.00584       0.00000  
     234  hru0234                    hru         234     1.1941E-5       0.00100       0.00000  
     235  hru0235                    hru         235     4.7763E-5       0.00402       0.00000  
     236  hru0236                    hru         236     3.5823E-5       0.00301       0.00000  
     237  hru0237                    hru         237     2.2688E-4       0.01908       0.00000  
     238  hru0238                    hru         238     7.8810E-4       0.06628       0.00000  
     239  hru0239                    hru         239     1.5523E-4       0.01306       0.00000  
     240  hru0240                    hru         240     2.9852E-5       0.00251       0.00000  
     241  hru0241                    hru         241     1.7911E-5       0.00151       0.00000  
     242  hru0242                    hru         242     5.9704E-5       0.00502       0.00000  
     243  hru0243                    hru         243     4.1793E-5       0.00352       0.00000  
     244  hru0244                    hru         244     5.4702E-4       0.04601       0.00000  
     245  hru0245                    hru         245     1.2764E-4       0.01074       0.00000  
     246  hru0246                    hru         246     2.2757E-5       0.03361       0.00000  
     247  hru0247                    hru         247     1.7067E-5       0.02521       0.00000  
     248  hru0248                    hru         248     2.2757E-5       0.03361       0.00000  
     249  hru0249                    hru         249     5.6891E-6       0.00840       0.00000  
     250  hru0250                    hru         250     5.6891E-6       0.00840       0.00000  
     251  hru0251                    hru         251     6.2580E-5       0.09244       0.00000  
     252  hru0252                    hru         252     5.6891E-6       0.00840       0.00000  
     253  hru0253                    hru         253     1.4792E-4       0.21849       0.00000  
     254  hru0254                    hru         254     1.1378E-5       0.01681       0.00000  
     255  hru0255                    hru         255     5.6891E-6       0.00840       0.00000  
     256  hru0256                    hru         256     1.1378E-5       0.01681       0.00000  
     257  hru0257                    hru         257     3.4135E-5       0.05042       0.00000  
     258  hru0258                    hru         258     1.7067E-5       0.02521       0.00000  
     259  hru0259                    hru         259     5.6891E-6       0.00840       0.00000  
     260  hru0260                    hru         260     5.6891E-6       0.00840       0.00000  
     261  hru0261                    hru         261     1.7067E-5       0.02521       0.00000  
     262  hru0262                    hru         262     5.6891E-6       0.00840       0.00000  
     263  hru0263                    hru         263     5.1202E-5       0.07563       0.00000  
     264  hru0264                    hru         264     1.0240E-4       0.15126       0.00000  
     265  hru0265                    hru         265     1.7067E-5       0.02521       0.00000  
     266  hru0266                    hru         266     1.1378E-5       0.01681       0.00000  
     267  hru0267                    hru         267     1.1378E-5       0.01681       0.00000  
     268  hru0268                    hru         268     1.1378E-5       0.01681       0.00000  
     269  hru0269                    hru         269     5.6891E-6       0.00840       0.00000  
     270  hru0270                    hru         270     5.6891E-6       0.00840       0.00000  
     271  hru0271                    hru         271     5.6891E-6       0.00840       0.00000  
     272  hru0272                    hru         272     5.6891E-6       0.00840       0.00000  
     273  hru0273                    hru         273     1.1378E-5       0.01681       0.00000  
     274  hru0274                    hru         274     1.1378E-5       0.01681       0.00000  
     275  hru0275                    hru         275     2.2757E-5       0.03361       0.00000  
     276  hru0276                    hru         276     6.1425E-5       0.00100       0.00000  
     277  hru0277                    hru         277     1.5970E-4       0.00261       0.00000  
     278  hru0278                    hru         278     5.5282E-5       0.00090       0.00000  
     279  hru0279                    hru         279     1.8427E-5       0.00030       0.00000  
     280  hru0280                    hru         280     4.1769E-4       0.00682       0.00000  
     281  hru0281                    hru         281     8.5995E-5       0.00140       0.00000  
     282  hru0282                    hru         282     2.3774E-4       0.00388       0.00000  
     283  hru0283                    hru         283     1.0010E-4       0.00163       0.00000  
     284  hru0284                    hru         284     9.2137E-5       0.00150       0.00000  
     285  hru0285                    hru         285     2.3956E-4       0.00391       0.00000  
     286  hru0286                    hru         286     6.1425E-5       0.00100       0.00000  
     287  hru0287                    hru         287     1.4742E-4       0.00241       0.00000  
     288  hru0288                    hru         288     6.1425E-6       0.00010       0.00000  
     289  hru0289                    hru         289     4.8526E-4       0.00792       0.00000  
     290  hru0290                    hru         290     1.0811E-3       0.01764       0.00000  
     291  hru0291                    hru         291     3.4398E-4       0.00561       0.00000  
     292  hru0292                    hru         292     4.7297E-4       0.00772       0.00000  
     293  hru0293                    hru         293     2.3341E-4       0.00381       0.00000  
     294  hru0294                    hru         294     5.8968E-4       0.00962       0.00000  
     295  hru0295                    hru         295     6.2653E-4       0.01022       0.00000  
     296  hru0296                    hru         296     9.2137E-5       0.00150       0.00000  
     297  hru0297                    hru         297     1.1056E-4       0.00180       0.00000  
     298  hru0298                    hru         298     3.6855E-5       0.00060       0.00000  
     299  hru0299                    hru         299     3.0712E-5       0.00050       0.00000  
     300  hru0300                    hru         300     2.0884E-4       0.00341       0.00000  
     301  hru0301                    hru         301     2.0884E-4       0.00341       0.00000  
     302  hru0302                    hru         302     1.0771E-2       0.17577       0.00000  
     303  hru0303                    hru         303     2.7240E-4       0.00445       0.00000  
     304  hru0304                    hru         304     1.0091E-3       0.01647       0.00000  
     305  hru0305                    hru         305     2.9349E-4       0.00479       0.00000  
     306  hru0306                    hru         306     2.4353E-4       0.00397       0.00000  
     307  hru0307                    hru         307     5.2413E-3       0.08553       0.00000  