ls_unit.def: written by SWAT+ editor v2.2.0 on 2023-03-22 04:25 for SWAT+ rev.60.5.4
114
      id              name          area  elem_tot  elements  
       1            rtu011      70.56000         2      5012     -5064  
       2            rtu012     429.93000         2      4900     -5011  
       3            rtu031      37.89000         2      1343     -1422  
       4            rtu032     248.31000         2      1225     -1342  
       5            rtu041      12.15000         2      1105     -1124  
       6            rtu042     381.24000         2       985     -1104  
       7            rtu051      18.99000         2       945      -984  
       8            rtu052     231.66000         2       874      -944  
       9            rtu061      48.60000         2       837      -873  
      10            rtu062     405.81000         2       742      -836  
      11            rtu081      28.08000         2       516      -561  
      12            rtu082     787.41000         2       427      -515  
      13            rtu091      35.01000         2      4389     -4451  
      14            rtu092     522.81000         2      4245     -4388  
      15            rtu121      47.34000         2       358      -426  
      16            rtu122     985.68000         2       276      -357  
      17            rtu131      10.44000         2      3928     -3950  
      18            rtu132     150.39000         2      3845     -3927  
      19            rtu151      20.34000         2      3820     -3844  
      20            rtu152     191.16000         2      3717     -3819  
      21            rtu161      15.30000         2      4031     -4047  
      22            rtu162     283.68000         2      3951     -4030  
      23            rtu191      23.31000         2      3194     -3207  
      24            rtu192     134.10000         2      3208     -3266  
      25            rtu201       8.10000         2      1615     -1641  
      26            rtu202     187.02000         2      1560     -1614  
      27            rtu231       4.95000         1      1559  
      28            rtu232     181.89000         2      1524     -1558  
      29            rtu241      11.25000         2      2409     -2430  
      30            rtu242     180.72000         2      2321     -2408  
      31            rtu251      12.87000         2      2495     -2540  
      32            rtu252     346.05000         2      2431     -2494  
      33            rtu261       6.12000         2      2593     -2602  
      34            rtu262     122.13000         2      2541     -2592  
      35            rtu271      10.89000         2       246      -275  
      36            rtu272     191.25000         2       203      -245  
      37            rtu291       8.73000         2      4687     -4699  
      38            rtu292     139.95000         2      4626     -4686  
      39            rtu301       6.03000         2      2210     -2227  
      40            rtu302     188.73000         2      2158     -2209  
      41            rtu311       7.65000         2       122      -142  
      42            rtu312     160.02000         2        87      -121  
      43            rtu321       7.20000         2      3481     -3504  
      44            rtu322     187.92000         2      3417     -3480  
      45            rtu331       3.06000         2      2313     -2320  
      46            rtu332     210.33000         2      2228     -2312  
      47            rtu351       7.56000         2      2136     -2157  
      48            rtu352     200.52000         2      2068     -2135  
      49            rtu361       9.45000         2      1476     -1507  
      50            rtu362     313.11000         2      1423     -1475  
      51            rtu371       6.03000         2      3071     -3079  
      52            rtu372     317.52000         2      2968     -3070  
      53            rtu381       2.79000         2      2053     -2067  
      54            rtu382     208.26000         2      1980     -2052  
      55            rtu401       4.59000         2      3592     -3607  
      56            rtu402     184.59000         2      3505     -3591  
      57            rtu411       3.24000         2      2895     -2904  
      58            rtu412     105.66000         2      2799     -2894  
      59            rtu421       7.65000         2      1211     -1224  
      60            rtu422     411.93000         2      1125     -1210  
      61            rtu431       3.51000         2      1832     -1848  
      62            rtu432     134.73000         2      1768     -1831  
      63            rtu441       4.86000         2      3180     -3193  
      64            rtu442     202.50000         2      3080     -3179  
      65            rtu451       4.32000         2      3394     -3416  
      66            rtu452     279.99000         2      3315     -3393  
      67            rtu461       0.81000         2      4896     -4899  
      68            rtu462     116.37000         2      4779     -4895  
      69            rtu471       1.26000         2      4237     -4244  
      70            rtu472     108.99000         2      4138     -4236  
      71            rtu481       6.12000         2      4128     -4137  
      72            rtu482     404.73000         2      4048     -4127  
      73            rtu511       2.25000         2      4773     -4778  
      74            rtu512     292.23000         2      4700     -4772  
      75            rtu521       3.78000         2      4620     -4625  
      76            rtu522     283.14000         2      4569     -4619  
      77            rtu551       9.54000         2      4549     -4568  
      78            rtu552     417.06000         2      4452     -4548  
      79            rtu571       5.58000         2      3644     -3668  
      80            rtu572     260.64000         2      3669     -3716  
      81            rtu601       2.34000         2      3633     -3643  
      82            rtu602     144.72000         2      3608     -3632  
      83            rtu611       0.63000         2      2964     -2967  
      84            rtu612     115.38000         2      2905     -2963  
      85            rtu631       0.63000         2      2651     -2653  
      86            rtu632     113.22000         2      2603     -2650  
      87            rtu641       1.62000         2      3301     -3314  
      88            rtu642     155.79000         2      3267     -3300  
      89            rtu651       3.69000         2       733      -741  
      90            rtu652     246.42000         2       641      -732  
      91            rtu681       5.04000         2      1960     -1979  
      92            rtu682     217.53000         2      1900     -1959  
      93            rtu711       2.07000         2      2714     -2718  
      94            rtu712     228.51000         2      2654     -2713  
      95            rtu721       3.06000         2       624      -640  
      96            rtu722     296.19000         2       562      -623  
      97            rtu731       5.31000         2      2778     -2798  
      98            rtu732     270.00000         2      2719     -2777  
      99            rtu761       1.71000         2      1891     -1899  
     100            rtu762     178.56000         2      1849     -1890  
     101            rtu801       3.60000         2      1747     -1767  
     102            rtu802     264.06000         2      1725     -1746  
     103            rtu821       3.06000         2      1684     -1693  
     104            rtu822     209.97000         2      1694     -1724  
     105            rtu831       9.00000         2      1656     -1683  
     106            rtu832     515.79000         2      1642     -1655  
     107            rtu861       0.36000         2      1521     -1523  
     108            rtu862     107.46000         2      1508     -1520  
     109            rtu871      11.34000         2       164      -202  
     110            rtu872     678.33000         2       143      -163  
     111            rtu881       3.60000         2        80       -86  
     112            rtu882     236.25000         2        58       -79  
     113            rtu901       5.22000         2        52       -57  
     114            rtu902     416.70000         2         1       -51  
