object.cnt: written by SWAT+ editor v2.2.0 on 2023-03-22 04:25 for SWAT+ rev.60.5.4
name                   ls_area      tot_area       obj       hru      lhru       rtu       mfl       aqu       cha       res       rec      exco       dlr       can       pmp       out      lcha     aqu2d       hrd       wro  
Osu                16085.52000   16085.52000      5256      5064         0       114         0        21         0         0         0         0         0         0         0         0        57         0         0         0  
