aquifer.con: written by SWAT+ editor v2.3.3 on 2024-03-26 16:27 for SWAT+ rev.60.5.7
      id  name                gis_id          area           lat           lon          elev       aqu               wst       cst      ovfl      rule   out_tot       obj_typ    obj_id       hyd_typ          frac  
       1  aqu010                  10       1.59750      39.42461      -0.34470       0.91200         1       s39280n460w         0         0         0         2           sdc        38           tot       1.00000           aqu        78           rhg       1.00000  
       2  aqu020                  20       7.34250      39.42383      -0.34364       1.16100         2       s39280n460w         0         0         0         2           sdc         1           tot       1.00000           aqu        78           rhg       1.00000  
       3  aqu030                  30       0.50000      39.42519      -0.35118       1.96300         3       s39280n460w         0         0         0         2           sdc        35           tot       1.00000           aqu        78           rhg       1.00000  
       4  aqu040                  40      13.45750      39.42682      -0.34955       2.44200         4       s39280n460w         0         0         0         2           sdc        12           tot       1.00000           aqu        78           rhg       1.00000  
       5  aqu050                  50       0.72250      39.41989      -0.35315       0.77500         5       s39280n460w         0         0         0         2           sdc        44           tot       1.00000           aqu        78           rhg       1.00000  
       6  aqu060                  60      24.91750      39.42416      -0.34698       1.58700         6       s39280n460w         0         0         0         2           sdc        34           tot       1.00000           aqu        78           rhg       1.00000  
       7  aqu070                  70       7.29250      39.41977      -0.35418       1.29400         7       s39280n460w         0         0         0         2           sdc         5           tot       1.00000           aqu        78           rhg       1.00000  
       8  aqu080                  80       8.26250      39.40162      -0.34306       0.72200         8       s39280n460w         0         0         0         2           sdc        37           tot       1.00000           aqu        78           rhg       1.00000  
       9  aqu090                  90       7.73500      39.40298      -0.33760       0.95900         9       s39280n460w         0         0         0         2           sdc        47           tot       1.00000           aqu        78           rhg       1.00000  
      10  aqu100                 100       6.57000      39.40759      -0.34946       0.97000        10       s39280n460w         0         0         0         2           sdc        46           tot       1.00000           aqu        78           rhg       1.00000  
      11  aqu110                 110       0.21500      39.41712      -0.35320       0.92900        11       s39280n460w         0         0         0         2           sdc        43           tot       1.00000           aqu        78           rhg       1.00000  
      12  aqu120                 120       8.02500      39.41834      -0.35575       1.24100        12       s39280n460w         0         0         0         2           sdc         6           tot       1.00000           aqu        78           rhg       1.00000  
      13  aqu130                 130       0.17750      39.41596      -0.35321       0.57800        13       s39280n460w         0         0         0         2           sdc        41           tot       1.00000           aqu        78           rhg       1.00000  
      14  aqu140                 140      11.02750      39.41707      -0.35721       1.30000        14       s39280n460w         0         0         0         2           sdc         7           tot       1.00000           aqu        78           rhg       1.00000  
      15  aqu150                 150       0.11500      39.41539      -0.35360       0.88100        15       s39280n460w         0         0         0         2           sdc        42           tot       1.00000           aqu        78           rhg       1.00000  
      16  aqu160                 160      16.30000      39.41581      -0.35994       1.34900        16       s39280n460w         0         0         0         2           sdc         8           tot       1.00000           aqu        78           rhg       1.00000  
      17  aqu170                 170       0.62750      39.41366      -0.35324       0.67000        17       s39280n460w         0         0         0         2           sdc        40           tot       1.00000           aqu        78           rhg       1.00000  
      18  aqu180                 180      31.07250      39.41361      -0.35895       1.54900        18       s39280n460w         0         0         0         2           sdc         9           tot       1.00000           aqu        78           rhg       1.00000  
      19  aqu190                 190       4.67000      39.40097      -0.35075       0.80300        19       s39280n460w         0         0         0         2           sdc        64           tot       1.00000           aqu        78           rhg       1.00000  
      20  aqu200                 200       0.44500      39.41417      -0.36592       2.19900        20       s39280n460w         0         0         0         2           sdc         4           tot       1.00000           aqu        78           rhg       1.00000  
      21  aqu210                 210       2.92250      39.41425      -0.36682       2.05600        21       s39280n460w         0         0         0         2           sdc        10           tot       1.00000           aqu        78           rhg       1.00000  
      22  aqu220                 220       6.92000      39.40172      -0.35689       1.26100        22       s39280n460w         0         0         0         2           sdc        62           tot       1.00000           aqu        78           rhg       1.00000  
      23  aqu230                 230       4.89500      39.40341      -0.36253       1.07900        23       s39280n460w         0         0         0         2           sdc        61           tot       1.00000           aqu        79           rhg       1.00000  
      24  aqu240                 240      82.15750      39.40146      -0.35928       0.98200        24       s39280n460w         0         0         0         2           sdc        11           tot       1.00000           aqu        79           rhg       1.00000  
      25  aqu250                 250      50.36500      39.40330      -0.36422       1.08800        25       s39280n460w         0         0         0         2           sdc        28           tot       1.00000           aqu        79           rhg       1.00000  
      26  aqu260                 260       1.28500      39.39253      -0.35537       0.70800        26       s39280n460w         0         0         0         2           sdc        59           tot       1.00000           aqu        79           rhg       1.00000  
      27  aqu270                 270       0.04000      39.39021      -0.35377       0.79900        27       s39280n460w         0         0         0         2           sdc        60           tot       1.00000           aqu        79           rhg       1.00000  
      28  aqu280                 280      14.13750      39.39232      -0.35681       0.81200        28       s39280n460w         0         0         0         2           sdc        29           tot       1.00000           aqu        79           rhg       1.00000  
      29  aqu290                 290     114.91750      39.40503      -0.35619       0.74500        29       s39280n460w         0         0         0         2           sdc        18           tot       1.00000           aqu        78           rhg       1.00000  
      30  aqu300                 300       2.58500      39.38780      -0.34729       0.42700        30       s39280n460w         0         0         0         2           sdc        56           tot       1.00000           aqu        78           rhg       1.00000  
      31  aqu310                 310      62.50250      39.41086      -0.35150       1.03600        31       s39280n460w         0         0         0         2           sdc        17           tot       1.00000           aqu        78           rhg       1.00000  
      32  aqu320                 320       0.03250      39.39330      -0.34498       0.64800        32       s39280n460w         0         0         0         2           sdc        39           tot       1.00000           aqu        78           rhg       1.00000  
      33  aqu330                 330       2.53000      39.38906      -0.34153       0.57300        33       s39280n460w         0         0         0         2           sdc        66           tot       1.00000           aqu        78           rhg       1.00000  
      34  aqu340                 340       1.67000      39.39025      -0.34403       0.33800        34       s39280n460w         0         0         0         2           sdc        65           tot       1.00000           aqu        78           rhg       1.00000  
      35  aqu350                 350       3.60500      39.38389      -0.34704       0.25300        35       s39280n460w         0         0         0         2           sdc        58           tot       1.00000           aqu        79           rhg       1.00000  
      36  aqu360                 360       4.68500      39.39061      -0.34369       0.68200        36       s39280n460w         0         0         0         2           sdc        19           tot       1.00000           aqu        78           rhg       1.00000  
      37  aqu370                 370       4.47250      39.37997      -0.33826       0.41200        37       s39280n460w         0         0         0         2           sdc        67           tot       1.00000           aqu        78           rhg       1.00000  
      38  aqu380                 380     149.70750      39.40798      -0.34685       0.66200        38       s39280n460w         0         0         0         2           sdc        21           tot       1.00000           aqu        78           rhg       1.00000  
      39  aqu390                 390       1.06000      39.38380      -0.33663       0.56200        39       s39280n460w         0         0         0         2           sdc        36           tot       1.00000           aqu        78           rhg       1.00000  
      40  aqu400                 400     187.47500      39.40302      -0.34054       0.80300        40       s39280n460w         0         0         0         2           sdc        63           tot       1.00000           aqu        78           rhg       1.00000  
      41  aqu410                 410      65.06250      39.40068      -0.33575       0.93500        41       s39280n460w         0         0         0         2           sdc        13           tot       1.00000           aqu        78           rhg       1.00000  
      42  aqu420                 420       1.66250      39.38160      -0.33460       1.15000        42       s39280n460w         0         0         0         2           sdc        48           tot       1.00000           aqu        78           rhg       1.00000  
      43  aqu430                 430       1.08500      39.38115      -0.33502       1.24300        43       s39280n460w         0         0         0         2           sdc         3           tot       1.00000           aqu        78           rhg       1.00000  
      44  aqu440                 440      22.37500      39.38710      -0.34814       0.35100        44       s39280n460w         0         0         0         2           sdc        25           tot       1.00000           aqu        78           rhg       1.00000  
      45  aqu450                 450       0.05500      39.38334      -0.34324       0.05600        45       s39280n460w         0         0         0         2           sdc        68           tot       1.00000           aqu        78           rhg       1.00000  
      46  aqu460                 460      44.15250      39.38892      -0.34583       0.02300        46       s39280n460w         0         0         0         2           sdc        20           tot       1.00000           aqu        78           rhg       1.00000  
      47  aqu470                 470       0.57000      39.38221      -0.34259       0.14900        47       s39280n460w         0         0         0         2           sdc        69           tot       1.00000           aqu        78           rhg       1.00000  
      48  aqu480                 480       5.34500      39.38235      -0.34121       0.27000        48       s39280n460w         0         0         0         2           sdc        22           tot       1.00000           aqu        78           rhg       1.00000  
      49  aqu490                 490       0.66000      39.37991      -0.34131       0.14200        49       s39280n460w         0         0         0         2           sdc        55           tot       1.00000           aqu        78           rhg       1.00000  
      50  aqu500                 500      10.50250      39.38092      -0.34313       0.00300        50       s39280n460w         0         0         0         2           sdc        26           tot       1.00000           aqu        78           rhg       1.00000  
      51  aqu510                 510       1.27000      39.37616      -0.33924       0.01600        51       s39280n460w         0         0         0         2           sdc        54           tot       1.00000           aqu        78           rhg       1.00000  
      52  aqu520                 520      43.79750      39.38250      -0.34777       0.28900        52       s39280n460w         0         0         0         2           sdc        30           tot       1.00000           aqu        79           rhg       1.00000  
      53  aqu530                 530       1.98000      39.37284      -0.33925      -0.17000        53       s39280n460w         0         0         0         2           sdc        57           tot       1.00000           aqu        79           rhg       1.00000  
      54  aqu540                 540       0.76250      39.37891      -0.33384       1.14400        54       s39280n460w         0         0         0         2           sdc        49           tot       1.00000           aqu        78           rhg       1.00000  
      55  aqu550                 550      42.59500      39.38055      -0.33698       0.50700        55       s39280n460w         0         0         0         2           sdc        14           tot       1.00000           aqu        78           rhg       1.00000  
      56  aqu560                 560       1.03000      39.37549      -0.33282       1.08100        56       s39280n460w         0         0         0         2           sdc        50           tot       1.00000           aqu        78           rhg       1.00000  
      57  aqu570                 570       1.07250      39.37067      -0.33142       1.04700        57       s39280n460w         0         0         0         2           sdc        51           tot       1.00000           aqu        78           rhg       1.00000  
      58  aqu580                 580      12.94750      39.37783      -0.33904       0.18800        58       s39280n460w         0         0         0         2           sdc        23           tot       1.00000           aqu        78           rhg       1.00000  
      59  aqu590                 590       0.95500      39.37191      -0.33685       0.08000        59       s39280n460w         0         0         0         2           sdc        53           tot       1.00000           aqu        78           rhg       1.00000  
      60  aqu600                 600      12.27250      39.37407      -0.33897       0.00300        60       s39280n460w         0         0         0         2           sdc        27           tot       1.00000           aqu        78           rhg       1.00000  
      61  aqu610                 610       0.07250      39.37002      -0.33578       0.37800        61       s39280n460w         0         0         0         2           sdc        52           tot       1.00000           aqu        78           rhg       1.00000  
      62  aqu620                 620       6.89750      39.37174      -0.33569       0.18300        62       s39280n460w         0         0         0         2           sdc        24           tot       1.00000           aqu        78           rhg       1.00000  
      63  aqu630                 630       2.40250      39.36444      -0.33422      -0.12200        63       s39280n460w         0         0         0         2           sdc        70           tot       1.00000           aqu        78           rhg       1.00000  
      64  aqu640                 640      37.91500      39.37217      -0.34127      -0.12400        64       s39280n460w         0         0         0         2           sdc        31           tot       1.00000           aqu        79           rhg       1.00000  
      65  aqu650                 650      17.24750      39.37217      -0.33376       0.52200        65       s39280n460w         0         0         0         2           sdc        15           tot       1.00000           aqu        78           rhg       1.00000  
      66  aqu660                 660       1.00500      39.36592      -0.33024       1.08500        66       s39280n460w         0         0         0         2           sdc        74           tot       1.00000           aqu        78           rhg       1.00000  
      67  aqu670                 670       1.49750      39.36439      -0.33705      -0.28000        67       s39280n460w         0         0         0         2           sdc        71           tot       1.00000           aqu        79           rhg       1.00000  
      68  aqu680                 680      18.59000      39.36396      -0.33824      -0.38500        68       s39280n460w         0         0         0         2           sdc        32           tot       1.00000           aqu        79           rhg       1.00000  
      69  aqu690                 690      28.19750      39.36420      -0.33559      -0.09500        69       s39280n460w         0         0         0         2           sdc        33           tot       1.00000           aqu        79           rhg       1.00000  
      70  aqu700                 700       0.23500      39.36010      -0.33632      -0.35400        70       s39280n460w         0         0         0         2           sdc        72           tot       1.00000           aqu        79           rhg       1.00000  
      71  aqu710                 710      37.79750      39.36432      -0.33214       0.10500        71       s39280n460w         0         0         0         2           sdc        16           tot       1.00000           aqu        78           rhg       1.00000  
      72  aqu720                 720       0.67000      39.36186      -0.32943       1.47200        72       s39280n460w         0         0         0         2           sdc        76           tot       1.00000           aqu        78           rhg       1.00000  
      73  aqu730                 730      37.12250      39.36867      -0.33013       1.46000        73       s39280n460w         0         0         0         2           sdc        75           tot       1.00000           aqu        78           rhg       1.00000  
      74  aqu740                 740       0.63500      39.35893      -0.32927       0.13300        74       s39280n460w         0         0         0         2           sdc        77           tot       1.00000           aqu        78           rhg       1.00000  
      75  aqu770                 770       0.02250      39.38546      -0.33753       0.70300        75       s39280n460w         0         0         0         2           sdc         2           tot       1.00000           aqu        78           rhg       1.00000  
      76  aqu780                 780       2.91250      39.42268      -0.35157       1.58500        76       s39280n460w         0         0         0         2           sdc        45           tot       1.00000           aqu        78           rhg       1.00000  
      77  aqu790                 790       0.14500      39.35908      -0.33615      -0.03300        77       s39280n460w         0         0         0         2           sdc        73           tot       1.00000           aqu        79           rhg       1.00000  
      78  aqu_deep074             74    1023.71250      39.39938      -0.34486       0.79462        78       s39280n460w         0         0         0         0  
      79  aqu_deep079             79     288.84250      39.38789      -0.35184       0.52405        79       s39280n460w         0         0         0         0  
