hydrology.hyd: written by SWAT+ editor v2.3.3 on 2024-03-26 16:27 for SWAT+ rev.60.5.7
name                 lat_ttime       lat_sed       can_max          esco          epco   orgn_enrich   orgp_enrich       cn3_swf       bio_mix         perco      lat_orgn      lat_orgp        pet_co       latq_co  
hyd01                  0.00000       0.00000       1.00000        0.9500        0.5000       0.00000       0.00000       0.95000       0.20000       0.05000       0.00000       0.00000       1.00000       0.01000  
hyd02                  0.00000       0.00000       1.00000        0.9500        0.5000       0.00000       0.00000       0.95000       0.20000       0.05000       0.00000       0.00000       1.00000       0.01000  
hyd03                  0.00000       0.00000       1.00000        0.9500        0.5000       0.00000       0.00000       0.95000       0.20000       0.05000       0.00000       0.00000       1.00000       0.01000  
hyd04                  0.00000       0.00000       1.00000        0.9500        0.5000       0.00000       0.00000       0.95000       0.20000       0.05000       0.00000       0.00000       1.00000       0.01000  
hyd05                  0.00000       0.00000       1.00000        0.9500        0.5000       0.00000       0.00000       0.95000       0.20000       0.05000       0.00000       0.00000       1.00000       0.01000  
hyd06                  0.00000       0.00000       1.00000        0.9500        0.5000       0.00000       0.00000       0.95000       0.20000       0.05000       0.00000       0.00000       1.00000       0.01000  
hyd07                  0.00000       0.00000       1.00000        0.9500        0.5000       0.00000       0.00000       0.95000       0.20000       0.05000       0.00000       0.00000       1.00000       0.01000  
hyd08                  0.00000       0.00000       1.00000        0.9500        0.5000       0.00000       0.00000       0.95000       0.20000       0.05000       0.00000       0.00000       1.00000       0.01000  
hyd09                  0.00000       0.00000       1.00000        0.9500        0.5000       0.00000       0.00000       0.95000       0.20000       0.05000       0.00000       0.00000       1.00000       0.01000  
hyd10                  0.00000       0.00000       1.00000        0.9500        0.5000       0.00000       0.00000       0.95000       0.20000       0.05000       0.00000       0.00000       1.00000       0.01000  
hyd11                  0.00000       0.00000       1.00000        0.9500        0.5000       0.00000       0.00000       0.95000       0.20000       0.05000       0.00000       0.00000       1.00000       0.01000  
hyd12                  0.00000       0.00000       1.00000        0.9500        0.5000       0.00000       0.00000       0.95000       0.20000       0.05000       0.00000       0.00000       1.00000       0.01000  
hyd13                  0.00000       0.00000       1.00000        0.9500        0.5000       0.00000       0.00000       0.95000       0.20000       0.05000       0.00000       0.00000       1.00000       0.01000  
hyd14                  0.00000       0.00000       1.00000        0.9500        0.5000       0.00000       0.00000       0.95000       0.20000       0.05000       0.00000       0.00000       1.00000       0.01000  
hyd15                  0.00000       0.00000       1.00000        0.9500        0.5000       0.00000       0.00000       0.95000       0.20000       0.05000       0.00000       0.00000       1.00000       0.01000  
hyd16                  0.00000       0.00000       1.00000        0.9500        0.5000       0.00000       0.00000       0.95000       0.20000       0.05000       0.00000       0.00000       1.00000       0.01000  
hyd17                  0.00000       0.00000       1.00000        0.9500        0.5000       0.00000       0.00000       0.95000       0.20000       0.05000       0.00000       0.00000       1.00000       0.01000  
hyd18                  0.00000       0.00000       1.00000        0.9500        0.5000       0.00000       0.00000       0.95000       0.20000       0.05000       0.00000       0.00000       1.00000       0.01000  
hyd19                  0.00000       0.00000       1.00000        0.9500        0.5000       0.00000       0.00000       0.95000       0.20000       0.05000       0.00000       0.00000       1.00000       0.01000  
hyd20                  0.00000       0.00000       1.00000        0.9500        0.5000       0.00000       0.00000       0.95000       0.20000       0.05000       0.00000       0.00000       1.00000       0.01000  
hyd21                  0.00000       0.00000       1.00000        0.9500        0.5000       0.00000       0.00000       0.95000       0.20000       0.05000       0.00000       0.00000       1.00000       0.01000  
hyd22                  0.00000       0.00000       1.00000        0.9500        0.5000       0.00000       0.00000       0.95000       0.20000       0.05000       0.00000       0.00000       1.00000       0.01000  
hyd23                  0.00000       0.00000       1.00000        0.9500        0.5000       0.00000       0.00000       0.95000       0.20000       0.05000       0.00000       0.00000       1.00000       0.01000  
hyd24                  0.00000       0.00000       1.00000        0.9500        0.5000       0.00000       0.00000       0.95000       0.20000       0.05000       0.00000       0.00000       1.00000       0.01000  
hyd25                  0.00000       0.00000       1.00000        0.9500        0.5000       0.00000       0.00000       0.95000       0.20000       0.05000       0.00000       0.00000       1.00000       0.01000  
hyd26                  0.00000       0.00000       1.00000        0.9500        0.5000       0.00000       0.00000       0.95000       0.20000       0.05000       0.00000       0.00000       1.00000       0.01000  
hyd27                  0.00000       0.00000       1.00000        0.9500        0.5000       0.00000       0.00000       0.95000       0.20000       0.05000       0.00000       0.00000       1.00000       0.01000  
hyd28                  0.00000       0.00000       1.00000        0.9500        0.5000       0.00000       0.00000       0.95000       0.20000       0.05000       0.00000       0.00000       1.00000       0.01000  
hyd29                  0.00000       0.00000       1.00000        0.9500        0.5000       0.00000       0.00000       0.95000       0.20000       0.05000       0.00000       0.00000       1.00000       0.01000  
hyd30                  0.00000       0.00000       1.00000        0.9500        0.5000       0.00000       0.00000       0.95000       0.20000       0.05000       0.00000       0.00000       1.00000       0.01000  
hyd31                  0.00000       0.00000       1.00000        0.9500        0.5000       0.00000       0.00000       0.95000       0.20000       0.05000       0.00000       0.00000       1.00000       0.01000  
hyd32                  0.00000       0.00000       1.00000        0.9500        0.5000       0.00000       0.00000       0.95000       0.20000       0.05000       0.00000       0.00000       1.00000       0.01000  
hyd33                  0.00000       0.00000       1.00000        0.9500        0.5000       0.00000       0.00000       0.95000       0.20000       0.05000       0.00000       0.00000       1.00000       0.01000  
hyd34                  0.00000       0.00000       1.00000        0.9500        0.5000       0.00000       0.00000       0.95000       0.20000       0.05000       0.00000       0.00000       1.00000       0.01000  
hyd35                  0.00000       0.00000       1.00000        0.9500        0.5000       0.00000       0.00000       0.95000       0.20000       0.05000       0.00000       0.00000       1.00000       0.01000  
hyd36                  0.00000       0.00000       1.00000        0.9500        0.5000       0.00000       0.00000       0.95000       0.20000       0.05000       0.00000       0.00000       1.00000       0.01000  
hyd37                  0.00000       0.00000       1.00000        0.9500        0.5000       0.00000       0.00000       0.95000       0.20000       0.05000       0.00000       0.00000       1.00000       0.01000  
hyd38                  0.00000       0.00000       1.00000        0.9500        0.5000       0.00000       0.00000       0.95000       0.20000       0.05000       0.00000       0.00000       1.00000       0.01000  
hyd39                  0.00000       0.00000       1.00000        0.9500        0.5000       0.00000       0.00000       0.95000       0.20000       0.05000       0.00000       0.00000       1.00000       0.01000  
hyd40                  0.00000       0.00000       1.00000        0.9500        0.5000       0.00000       0.00000       0.95000       0.20000       0.05000       0.00000       0.00000       1.00000       0.01000  
hyd41                  0.00000       0.00000       1.00000        0.9500        0.5000       0.00000       0.00000       0.95000       0.20000       0.05000       0.00000       0.00000       1.00000       0.01000  
hyd42                  0.00000       0.00000       1.00000        0.9500        0.5000       0.00000       0.00000       0.95000       0.20000       0.05000       0.00000       0.00000       1.00000       0.01000  
hyd43                  0.00000       0.00000       1.00000        0.9500        0.5000       0.00000       0.00000       0.95000       0.20000       0.05000       0.00000       0.00000       1.00000       0.01000  
hyd44                  0.00000       0.00000       1.00000        0.9500        0.5000       0.00000       0.00000       0.95000       0.20000       0.05000       0.00000       0.00000       1.00000       0.01000  
hyd45                  0.00000       0.00000       1.00000        0.9500        0.5000       0.00000       0.00000       0.95000       0.20000       0.05000       0.00000       0.00000       1.00000       0.01000  
hyd46                  0.00000       0.00000       1.00000        0.9500        0.5000       0.00000       0.00000       0.95000       0.20000       0.05000       0.00000       0.00000       1.00000       0.01000  
hyd47                  0.00000       0.00000       1.00000        0.9500        0.5000       0.00000       0.00000       0.95000       0.20000       0.05000       0.00000       0.00000       1.00000       0.01000  
hyd48                  0.00000       0.00000       1.00000        0.9500        0.5000       0.00000       0.00000       0.95000       0.20000       0.05000       0.00000       0.00000       1.00000       0.01000  
hyd49                  0.00000       0.00000       1.00000        0.9500        0.5000       0.00000       0.00000       0.95000       0.20000       0.05000       0.00000       0.00000       1.00000       0.01000  
hyd50                  0.00000       0.00000       1.00000        0.9500        0.5000       0.00000       0.00000       0.95000       0.20000       0.05000       0.00000       0.00000       1.00000       0.01000  
hyd51                  0.00000       0.00000       1.00000        0.9500        0.5000       0.00000       0.00000       0.95000       0.20000       0.05000       0.00000       0.00000       1.00000       0.01000  
hyd52                  0.00000       0.00000       1.00000        0.9500        0.5000       0.00000       0.00000       0.95000       0.20000       0.05000       0.00000       0.00000       1.00000       0.01000  
hyd53                  0.00000       0.00000       1.00000        0.9500        0.5000       0.00000       0.00000       0.95000       0.20000       0.05000       0.00000       0.00000       1.00000       0.01000  
hyd54                  0.00000       0.00000       1.00000        0.9500        0.5000       0.00000       0.00000       0.95000       0.20000       0.05000       0.00000       0.00000       1.00000       0.01000  
hyd55                  0.00000       0.00000       1.00000        0.9500        0.5000       0.00000       0.00000       0.95000       0.20000       0.05000       0.00000       0.00000       1.00000       0.01000  
hyd56                  0.00000       0.00000       1.00000        0.9500        0.5000       0.00000       0.00000       0.95000       0.20000       0.05000       0.00000       0.00000       1.00000       0.01000  
hyd57                  0.00000       0.00000       1.00000        0.9500        0.5000       0.00000       0.00000       0.95000       0.20000       0.05000       0.00000       0.00000       1.00000       0.01000  
hyd58                  0.00000       0.00000       1.00000        0.9500        0.5000       0.00000       0.00000       0.95000       0.20000       0.05000       0.00000       0.00000       1.00000       0.01000  
hyd59                  0.00000       0.00000       1.00000        0.9500        0.5000       0.00000       0.00000       0.95000       0.20000       0.05000       0.00000       0.00000       1.00000       0.01000  
hyd60                  0.00000       0.00000       1.00000        0.9500        0.5000       0.00000       0.00000       0.95000       0.20000       0.05000       0.00000       0.00000       1.00000       0.01000  
hyd61                  0.00000       0.00000       1.00000        0.9500        0.5000       0.00000       0.00000       0.95000       0.20000       0.05000       0.00000       0.00000       1.00000       0.01000  
hyd62                  0.00000       0.00000       1.00000        0.9500        0.5000       0.00000       0.00000       0.95000       0.20000       0.05000       0.00000       0.00000       1.00000       0.01000  
hyd63                  0.00000       0.00000       1.00000        0.9500        0.5000       0.00000       0.00000       0.95000       0.20000       0.05000       0.00000       0.00000       1.00000       0.01000  
hyd64                  0.00000       0.00000       1.00000        0.9500        0.5000       0.00000       0.00000       0.95000       0.20000       0.05000       0.00000       0.00000       1.00000       0.01000  
hyd65                  0.00000       0.00000       1.00000        0.9500        0.5000       0.00000       0.00000       0.95000       0.20000       0.05000       0.00000       0.00000       1.00000       0.01000  
hyd66                  0.00000       0.00000       1.00000        0.9500        0.5000       0.00000       0.00000       0.95000       0.20000       0.05000       0.00000       0.00000       1.00000       0.01000  
hyd67                  0.00000       0.00000       1.00000        0.9500        0.5000       0.00000       0.00000       0.95000       0.20000       0.05000       0.00000       0.00000       1.00000       0.01000  
hyd68                  0.00000       0.00000       1.00000        0.9500        0.5000       0.00000       0.00000       0.95000       0.20000       0.05000       0.00000       0.00000       1.00000       0.01000  
hyd69                  0.00000       0.00000       1.00000        0.9500        0.5000       0.00000       0.00000       0.95000       0.20000       0.05000       0.00000       0.00000       1.00000       0.01000  
hyd70                  0.00000       0.00000       1.00000        0.9500        0.5000       0.00000       0.00000       0.95000       0.20000       0.05000       0.00000       0.00000       1.00000       0.01000  
hyd71                  0.00000       0.00000       1.00000        0.9500        0.5000       0.00000       0.00000       0.95000       0.20000       0.05000       0.00000       0.00000       1.00000       0.01000  
hyd72                  0.00000       0.00000       1.00000        0.9500        0.5000       0.00000       0.00000       0.95000       0.20000       0.05000       0.00000       0.00000       1.00000       0.01000  
hyd73                  0.00000       0.00000       1.00000        0.9500        0.5000       0.00000       0.00000       0.95000       0.20000       0.05000       0.00000       0.00000       1.00000       0.01000  
hyd74                  0.00000       0.00000       1.00000        0.9500        0.5000       0.00000       0.00000       0.95000       0.20000       0.05000       0.00000       0.00000       1.00000       0.01000  
hyd75                  0.00000       0.00000       1.00000        0.9500        0.5000       0.00000       0.00000       0.95000       0.20000       0.05000       0.00000       0.00000       1.00000       0.01000  
hyd76                  0.00000       0.00000       1.00000        0.9500        0.5000       0.00000       0.00000       0.95000       0.20000       0.05000       0.00000       0.00000       1.00000       0.01000  
hyd77                  0.00000       0.00000       1.00000        0.9500        0.5000       0.00000       0.00000       0.95000       0.20000       0.05000       0.00000       0.00000       1.00000       0.01000  
																			 