irr.ops: written by SWAT+ editor v2.3.3 on 2024-03-21 12:45 for SWAT+ rev.60.5.7
       NAME IRR_AMT   IRR_EFF   SURQ_RTO   IRR_DEP   IRR_SALT   IRR_NO3N   IRR_PO4
       drip      50       0.9          0         0          0          0         0
  sprinkler      50       0.7        0.1         0          0          0         0
 subsurface      50         1          0       200          0          0         0
    surface      50       0.9        0.1         0          0          0         0
  ponding21      31         1        0.0         0        900          3       0.5
  ponding22      45         1        0.0         0        900          3       0.5
  ponding23      54         1        0.0         0        900          3       0.5
  ponding24      80         1        0.0         0        900          3       0.5
  ponding25     113         1        0.0         0        900          3       0.5
  ponding26     136         1        0.0         0        900          3       0.5
  ponding27     138         1        0.0         0        900          3       0.5
  ponding28     129         1        0.0         0        900          3       0.5
  ponding41      31         1        0.0         0        900          3       0.5
  ponding42      46         1        0.0         0        900          3       0.5
  ponding43      53         1        0.0         0        900          3       0.5
  ponding44      81         1        0.0         0        900          3       0.5
  ponding45     113         1        0.0         0        900          3       0.5
  ponding46     138         1        0.0         0        900          3       0.5
  ponding47     140         1        0.0         0        900          3       0.5
  ponding48     129         1        0.0         0        900          3       0.5
  ponding61      30         1        0.0         0        900          3       0.5
  ponding62      45         1        0.0         0        900          3       0.5
  ponding63      52         1        0.0         0        900          3       0.5
  ponding64      80         1        0.0         0        900          3       0.5
  ponding65     112         1        0.0         0        900          3       0.5
  ponding66     135         1        0.0         0        900          3       0.5
  ponding67     139         1        0.0         0        900          3       0.5
  ponding68     128         1        0.0         0        900          3       0.5
  ponding71      31         1        0.0         0        900          3       0.5
  ponding72      45         1        0.0         0        900          3       0.5
  ponding73      54         1        0.0         0        900          3       0.5
  ponding74      80         1        0.0         0        900          3       0.5
  ponding75     113         1        0.0         0        900          3       0.5
  ponding76     136         1        0.0         0        900          3       0.5
  ponding77     139         1        0.0         0        900          3       0.5
  ponding78     129         1        0.0         0        900          3       0.5
  ponding121     31         1        0.0         0        900          3       0.5
  ponding122     45         1        0.0         0        900          3       0.5
  ponding123     54         1        0.0         0        900          3       0.5
  ponding124     80         1        0.0         0        900          3       0.5
  ponding125    113         1        0.0         0        900          3       0.5
  ponding126    136         1        0.0         0        900          3       0.5
  ponding127    138         1        0.0         0        900          3       0.5
  ponding128    128         1        0.0         0        900          3       0.5
  ponding141     31         1        0.0         0        900          3       0.5
  ponding142     46         1        0.0         0        900          3       0.5
  ponding143     53         1        0.0         0        900          3       0.5
  ponding144     81         1        0.0         0        900          3       0.5
  ponding145    112         1        0.0         0        900          3       0.5
  ponding146    137         1        0.0         0        900          3       0.5
  ponding147    139         1        0.0         0        900          3       0.5
  ponding148    130         1        0.0         0        900          3       0.5
  ponding161     31         1        0.0         0        900          3       0.5
  ponding162     46         1        0.0         0        900          3       0.5
  ponding163     52         1        0.0         0        900          3       0.5
  ponding164     80         1        0.0         0        900          3       0.5
  ponding165    111         1        0.0         0        900          3       0.5
  ponding166    134         1        0.0         0        900          3       0.5
  ponding167    136         1        0.0         0        900          3       0.5
  ponding168    127         1        0.0         0        900          3       0.5
  ponding181     30         1        0.0         0        900          3       0.5
  ponding182     45         1        0.0         0        900          3       0.5
  ponding183     55         1        0.0         0        900          3       0.5
  ponding184     81         1        0.0         0        900          3       0.5
  ponding185    112         1        0.0         0        900          3       0.5
  ponding186    137         1        0.0         0        900          3       0.5
  ponding187    139         1        0.0         0        900          3       0.5
  ponding188    128         1        0.0         0        900          3       0.5
  ponding211     31         1        0.0         0        900          3       0.5
  ponding212     45         1        0.0         0        900          3       0.5
  ponding213     54         1        0.0         0        900          3       0.5
  ponding214     81         1        0.0         0        900          3       0.5
  ponding215    111         1        0.0         0        900          3       0.5
  ponding216    135         1        0.0         0        900          3       0.5
  ponding217    138         1        0.0         0        900          3       0.5
  ponding218    126         1        0.0         0        900          3       0.5
  ponding241     30         1        0.0         0        900          3       0.5
  ponding242     45         1        0.0         0        900          3       0.5
  ponding243     55         1        0.0         0        900          3       0.5
  ponding244     79         1        0.0         0        900          3       0.5
  ponding245    115         1        0.0         0        900          3       0.5
  ponding246    142         1        0.0         0        900          3       0.5
  ponding247    144         1        0.0         0        900          3       0.5
  ponding248    132         1        0.0         0        900          3       0.5
  ponding251     30         1        0.0         0        900          3       0.5
  ponding252     45         1        0.0         0        900          3       0.5
  ponding253     55         1        0.0         0        900          3       0.5
  ponding254     75         1        0.0         0        900          3       0.5
  ponding255    112         1        0.0         0        900          3       0.5
  ponding256    137         1        0.0         0        900          3       0.5
  ponding257    139         1        0.0         0        900          3       0.5
  ponding258    128         1        0.0         0        900          3       0.5
  ponding281     31         1        0.0         0        900          3       0.5
  ponding282     46         1        0.0         0        900          3       0.5
  ponding283     52         1        0.0         0        900          3       0.5
  ponding284     79         1        0.0         0        900          3       0.5
  ponding285    112         1        0.0         0        900          3       0.5
  ponding286    136         1        0.0         0        900          3       0.5
  ponding287    138         1        0.0         0        900          3       0.5
  ponding288    128         1        0.0         0        900          3       0.5
  ponding291     30         1        0.0         0        900          3       0.5
  ponding292     46         1        0.0         0        900          3       0.5
  ponding293     56         1        0.0         0        900          3       0.5
  ponding294     80         1        0.0         0        900          3       0.5
  ponding295    121         1        0.0         0        900          3       0.5
  ponding296    149         1        0.0         0        900          3       0.5
  ponding297    150         1        0.0         0        900          3       0.5
  ponding298    139         1        0.0         0        900          3       0.5
  ponding311     30         1        0.0         0        900          3       0.5
  ponding312     45         1        0.0         0        900          3       0.5
  ponding313     55         1        0.0         0        900          3       0.5
  ponding314     79         1        0.0         0        900          3       0.5
  ponding315    113         1        0.0         0        900          3       0.5
  ponding316    140         1        0.0         0        900          3       0.5
  ponding317    142         1        0.0         0        900          3       0.5
  ponding318    127         1        0.0         0        900          3       0.5
  ponding361    136         1        0.0         0        900          3       0.5
  ponding362    155         1        0.0         0        900          3       0.5
  ponding363     22         1        0.0         0        900          3       0.5
  ponding364     78         1        0.0         0        900          3       0.5
  ponding365     20         1        0.0         0        900          3       0.5
  ponding366     50         1        0.0         0        900          3       0.5
  ponding367     70         1        0.0         0        900          3       0.5
  ponding368    100         1        0.0         0        900          3       0.5
  ponding381     33         1        0.0         0        900          3       0.5
  ponding382     48         1        0.0         0        900          3       0.5
  ponding383     58         1        0.0         0        900          3       0.5
  ponding384     76         1        0.0         0        900          3       0.5
  ponding385    117         1        0.0         0        900          3       0.5
  ponding386    143         1        0.0         0        900          3       0.5
  ponding387    145         1        0.0         0        900          3       0.5
  ponding388    138         1        0.0         0        900          3       0.5
  ponding401     36         1        0.0         0        900          3       0.5
  ponding402     51         1        0.0         0        900          3       0.5
  ponding403     61         1        0.0         0        900          3       0.5
  ponding404     79         1        0.0         0        900          3       0.5
  ponding405    123         1        0.0         0        900          3       0.5
  ponding406    151         1        0.0         0        900          3       0.5
  ponding407    153         1        0.0         0        900          3       0.5
  ponding408    146         1        0.0         0        900          3       0.5
  ponding411     30         1        0.0         0        900          3       0.5
  ponding412     45         1        0.0         0        900          3       0.5
  ponding413     55         1        0.0         0        900          3       0.5
  ponding414     80         1        0.0         0        900          3       0.5
  ponding415    114         1        0.0         0        900          3       0.5
  ponding416    141         1        0.0         0        900          3       0.5
  ponding417    143         1        0.0         0        900          3       0.5
  ponding418    128         1        0.0         0        900          3       0.5
  ponding441     30         1        0.0         0        900          3       0.5
  ponding442     45         1        0.0         0        900          3       0.5
  ponding443     52         1        0.0         0        900          3       0.5
  ponding444     80         1        0.0         0        900          3       0.5
  ponding445    112         1        0.0         0        900          3       0.5
  ponding446    134         1        0.0         0        900          3       0.5
  ponding447    136         1        0.0         0        900          3       0.5
  ponding448    126         1        0.0         0        900          3       0.5
  ponding461    137         1        0.0         0        900          3       0.5
  ponding462    155         1        0.0         0        900          3       0.5
  ponding463     32         1        0.0         0        900          3       0.5
  ponding464     78         1        0.0         0        900          3       0.5
  ponding465     20         1        0.0         0        900          3       0.5
  ponding466     50         1        0.0         0        900          3       0.5
  ponding467     70         1        0.0         0        900          3       0.5
  ponding468    100         1        0.0         0        900          3       0.5
  ponding481    136         1        0.0         0        900          3       0.5
  ponding482    155         1        0.0         0        900          3       0.5
  ponding483     22         1        0.0         0        900          3       0.5
  ponding484     78         1        0.0         0        900          3       0.5
  ponding485     20         1        0.0         0        900          3       0.5
  ponding486     50         1        0.0         0        900          3       0.5
  ponding487     70         1        0.0         0        900          3       0.5
  ponding488    100         1        0.0         0        900          3       0.5
  ponding501    134         1        0.0         0        900          3       0.5
  ponding502    153         1        0.0         0        900          3       0.5
  ponding503     42         1        0.0         0        900          3       0.5
  ponding504     75         1        0.0         0        900          3       0.5
  ponding505     20         1        0.0         0        900          3       0.5
  ponding506     50         1        0.0         0        900          3       0.5
  ponding507     70         1        0.0         0        900          3       0.5
  ponding508    100         1        0.0         0        900          3       0.5
  ponding521    137         1        0.0         0        900          3       0.5
  ponding522    155         1        0.0         0        900          3       0.5
  ponding523     32         1        0.0         0        900          3       0.5
  ponding524     78         1        0.0         0        900          3       0.5
  ponding525     20         1        0.0         0        900          3       0.5
  ponding526     50         1        0.0         0        900          3       0.5
  ponding527     70         1        0.0         0        900          3       0.5
  ponding528    100         1        0.0         0        900          3       0.5
  ponding551    137         1        0.0         0        900          3       0.5
  ponding552    154         1        0.0         0        900          3       0.5
  ponding553     32         1        0.0         0        900          3       0.5
  ponding554     78         1        0.0         0        900          3       0.5
  ponding555     20         1        0.0         0        900          3       0.5
  ponding556     50         1        0.0         0        900          3       0.5
  ponding557     70         1        0.0         0        900          3       0.5
  ponding558    100         1        0.0         0        900          3       0.5
  ponding581     31         1        0.0         0        900          3       0.5
  ponding582     46         1        0.0         0        900          3       0.5
  ponding583     53         1        0.0         0        900          3       0.5
  ponding584     83         1        0.0         0        900          3       0.5
  ponding585    112         1        0.0         0        900          3       0.5
  ponding586    132         1        0.0         0        900          3       0.5
  ponding587    140         1        0.0         0        900          3       0.5
  ponding588    129         1        0.0         0        900          3       0.5
  ponding601    130         1        0.0         0        900          3       0.5
  ponding602    154         1        0.0         0        900          3       0.5
  ponding603     42         1        0.0         0        900          3       0.5
  ponding604     75         1        0.0         0        900          3       0.5
  ponding605     20         1        0.0         0        900          3       0.5
  ponding606     50         1        0.0         0        900          3       0.5
  ponding607     70         1        0.0         0        900          3       0.5
  ponding608    100         1        0.0         0        900          3       0.5
  ponding621    129         1        0.0         0        900          3       0.5
  ponding622    149         1        0.0         0        900          3       0.5
  ponding623     42         1        0.0         0        900          3       0.5
  ponding624     75         1        0.0         0        900          3       0.5
  ponding625     20         1        0.0         0        900          3       0.5
  ponding626     50         1        0.0         0        900          3       0.5
  ponding627     70         1        0.0         0        900          3       0.5
  ponding628    100         1        0.0         0        900          3       0.5
  ponding641    133         1        0.0         0        900          3       0.5
  ponding642    149         1        0.0         0        900          3       0.5
  ponding643     32         1        0.0         0        900          3       0.5
  ponding644     79         1        0.0         0        900          3       0.5
  ponding645     20         1        0.0         0        900          3       0.5
  ponding646     50         1        0.0         0        900          3       0.5
  ponding647     70         1        0.0         0        900          3       0.5
  ponding648    100         1        0.0         0        900          3       0.5
  ponding651    128         1        0.0         0        900          3       0.5
  ponding652    151         1        0.0         0        900          3       0.5
  ponding653     42         1        0.0         0        900          3       0.5
  ponding654     77         1        0.0         0        900          3       0.5
  ponding655     20         1        0.0         0        900          3       0.5
  ponding656     50         1        0.0         0        900          3       0.5
  ponding657     70         1        0.0         0        900          3       0.5
  ponding658    100         1        0.0         0        900          3       0.5
  ponding681    129         1        0.0         0        900          3       0.5
  ponding682    151         1        0.0         0        900          3       0.5
  ponding683     42         1        0.0         0        900          3       0.5
  ponding684     77         1        0.0         0        900          3       0.5
  ponding685     20         1        0.0         0        900          3       0.5
  ponding686     50         1        0.0         0        900          3       0.5
  ponding687     70         1        0.0         0        900          3       0.5
  ponding688    100         1        0.0         0        900          3       0.5
  ponding691    131         1        0.0         0        900          3       0.5
  ponding692    149         1        0.0         0        900          3       0.5
  ponding693     32         1        0.0         0        900          3       0.5
  ponding694     77         1        0.0         0        900          3       0.5
  ponding695     20         1        0.0         0        900          3       0.5
  ponding696     50         1        0.0         0        900          3       0.5
  ponding697     70         1        0.0         0        900          3       0.5
  ponding698    100         1        0.0         0        900          3       0.5
  ponding711    133         1        0.0         0        900          3       0.5
  ponding712    149         1        0.0         0        900          3       0.5
  ponding713     32         1        0.0         0        900          3       0.5
  ponding714     79         1        0.0         0        900          3       0.5
  ponding715     20         1        0.0         0        900          3       0.5
  ponding716     50         1        0.0         0        900          3       0.5
  ponding717     70         1        0.0         0        900          3       0.5
  ponding718    100         1        0.0         0        900          3       0.5
  ponding731     30         1        0.0         0        900          3       0.5
  ponding732     45         1        0.0         0        900          3       0.5
  ponding733     55         1        0.0         0        900          3       0.5
  ponding734     81         1        0.0         0        900          3       0.5
  ponding735    114         1        0.0         0        900          3       0.5
  ponding736    140         1        0.0         0        900          3       0.5
  ponding737    142         1        0.0         0        900          3       0.5
  ponding738    129         1        0.0         0        900          3       0.5
  ponding761     31         1        0.0         0        900          3       0.5
  ponding762     45         1        0.0         0        900          3       0.5
  ponding763     54         1        0.0         0        900          3       0.5
  ponding764     81         1        0.0         0        900          3       0.5
  ponding765    111         1        0.0         0        900          3       0.5
  ponding766    135         1        0.0         0        900          3       0.5
  ponding767    138         1        0.0         0        900          3       0.5
  ponding768    126         1        0.0         0        900          3       0.5
  ponding_off     0         1        0.1         0          0          0       0  