object.cnt: written by SWAT+ editor v2.3.3 on 2024-03-26 16:27 for SWAT+ rev.60.5.7
name                   ls_area      tot_area       obj       hru      lhru       rtu       mfl       aqu       cha       res       rec      exco       dlr       can       pmp       out      lcha     aqu2d       hrd       wro  
april24             1312.55500    1312.55500       310        77         0        77         0        79         0         0         0         0         0         0         0         0        77         0         0         0  
