slr.cli: Solar radiation file names - file written by SWAT+ editor 2024-05-20 13:16:23.536402
filename
Pipa_SLR.slr
