weather-sta.cli: written by SWAT+ editor v2.3.3 on 2024-05-20 14:22 for SWAT+ rev.60.5.7
name                           wgn                        pcp                        tmp                        slr                        hmd                        wnd           wnd_dir          atmo_dep  
s39359n347w                   sta1               Pipa_PCP.pcp               Pipa_TMP.tmp               Pipa_SLR.slr               Pipa_HMD.hmd               Pipa_WND.wnd              null              null  
