weather-wgn.cli: written by SWAT+ editor v2.3.3 on 2024-05-20 14:22 for SWAT+ rev.60.5.7
sta1                           11.60000      37.38000    1770.00000        10  
 tmp_max_ave   tmp_min_ave    tmp_max_sd    tmp_min_sd       pcp_ave        pcp_sd      pcp_skew       wet_dry       wet_wet      pcp_days       pcp_hhr       slr_ave       dew_ave       wnd_ave  
    16.16000       7.71000       3.24000       3.43000      19.21000       6.21000       7.24000       0.12000       0.38000       5.40000       5.93000       8.19000       0.66000       3.38000  
    16.54000       8.81000       3.34000       3.20000      19.21000       5.01000      14.22000       0.11000       0.47000       5.10000       4.23000      10.97000       0.66000       3.28000  
    18.39000      10.00000       3.88000       2.95000      52.30000       5.03000       3.83000       0.15000       0.51000       7.60000       5.81000      15.62000       0.67000       3.47000  
    19.89000      11.70000       3.66000       2.43000      39.06000       5.00000       6.89000       0.14000       0.58000       7.90000       6.09000      19.57000       0.70000       2.94000  
    23.03000      14.85000       3.37000       2.65000      19.78000       3.95000      10.42000       0.09000       0.44000       4.70000       4.14000      24.45000       0.69000       2.61000  
    26.48000      18.98000       2.76000       2.64000      21.05000       5.27000      13.24000       0.09000       0.21000       3.30000       5.24000      26.26000       0.71000       2.33000  
    29.06000      22.06000       2.39000       2.06000       5.55000       1.31000      13.01000       0.05000       0.37000       2.40000       1.48000      26.06000       0.74000       2.25000  
    29.35000      22.20000       2.44000       1.97000      17.20000       2.73000       6.53000       0.08000       0.44000       4.30000       3.75000      22.57000       0.75000       2.21000  
    27.33000      19.34000       2.63000       2.33000      57.35000       6.00000       4.30000       0.14000       0.56000       7.30000       7.60000      17.92000       0.76000       2.23000  
    24.27000      15.88000       3.02000       2.58000      51.91000      13.52000      16.17000       0.17000       0.41000       7.20000      11.21000      12.98000       0.76000       1.95000  
    19.73000      11.45000       3.27000       3.72000      69.51000       8.91000       6.19000       0.16000       0.63000       9.40000      12.56000       9.06000       0.69000       2.72000  
    17.21000       8.75000       2.51000       3.56000      33.54000       6.29000       8.28000       0.18000       0.40000       7.20000       4.93000       6.78000       0.73000       2.94000  
