wnd.cli: Wind speed file names - file written by SWAT+ editor 2023-12-13 17:15:14.556621
filename
beni_WND.wnd
